geometry optimzed in LAMMPS
_audit_creation_date              2020-12-01 
_audit_creation_method            'lammps2cif' 
_symmetry_space_group_name_H-M    'P1' 
_symmetry_Int_Tables_number       1 
_symmetry_cell_setting            triclinic 
loop_ 
_symmetry_equiv_pos_as_xyz 
  x,y,z 
_cell_length_a                    53.22982545 
_cell_length_b                    28.976212449863528 
_cell_length_c                    39.40795581494302 
_cell_angle_alpha                 89.98201018269552 
_cell_angle_beta                  89.92239618132862 
_cell_angle_gamma                 89.91502191042235 
loop_ 
_atom_site_label 
_atom_site_type_symbol 
_atom_site_fract_x 
_atom_site_fract_y 
_atom_site_fract_z 
_atom_site_charge 
C1          C  0.14444557  0.01121692  0.78746767     0.03100
C2          C  0.11811412  0.01033844  0.78772060    -0.13000
C3          C  0.10479146  0.98539260  0.76311969     0.00600
C4          C  0.11814460  0.96086078  0.73821394    -0.11500
C5          C  0.14451248  0.96022263  0.73833060     0.03100
C6          C  0.15758888  0.98572576  0.76287992    -0.11000
H7          H  0.10794864  0.02992771  0.80674762     0.08700
H8          H  0.10805072  0.94280418  0.71840059     0.06200
H9          H  0.17795118  0.98575197  0.76284252     0.06100
C10         C  0.87691677  0.96953584  0.77224089     0.03100
C11         C  0.86356982  0.99086071  0.74586356    -0.13000
C12         C  0.87618609  0.01746606  0.72134105     0.00600
C13         C  0.90241451  0.02255590  0.72369260    -0.11500
C14         C  0.91595411  0.00057415  0.74966897     0.03100
C15         C  0.90307387  0.97393146  0.77373538    -0.11000
H16         H  0.84335337  0.98690290  0.74456102     0.08700
H17         H  0.91231025  0.04382559  0.70544147     0.06200
H18         H  0.91342165  0.95638921  0.79361449     0.06100
O19         O  0.26045075  0.68914975  0.53610164    -0.71800
O20         O  0.22456911  0.75621488  0.46879100    -0.72000
O21         O  0.26045760  0.69070521  0.46818440    -0.71900
O22         O  0.22441503  0.75480054  0.53693211    -0.71900
O23         O  0.25381772  0.80667415  0.53858031    -0.71800
O24         O  0.28861958  0.74472196  0.46793311    -0.71800
O25         O  0.25264271  0.81011353  0.47060177    -0.71800
O26         O  0.28943673  0.74160080  0.53571156    -0.72000
V27         V  0.24298363  0.72375607  0.50252798     1.35200
V28         V  0.27054147  0.77477482  0.50314240     1.35200
C29         C  0.28146962  0.70342079  0.54677442     0.77500
C30         C  0.23224395  0.79502320  0.45847294     0.77500
C31         C  0.28092602  0.70638975  0.45670501     0.77400
C32         C  0.23310262  0.79157131  0.54957164     0.77300
C33         C  0.37797433  0.53842132  0.72979717     0.03100
C34         C  0.40428861  0.53707728  0.72932592    -0.13000
C35         C  0.41750618  0.51070612  0.75324384     0.00600
C36         C  0.40416397  0.48648983  0.77833209    -0.11500
C37         C  0.37779312  0.48804943  0.77928041     0.03100
C38         C  0.36482428  0.51374418  0.75471918    -0.11000
H39         H  0.41447583  0.55617592  0.71007475     0.08700
H40         H  0.41426793  0.46563238  0.79663755     0.06200
H41         H  0.34446161  0.51416450  0.75478412     0.06100
C42         C  0.64671908  0.51355578  0.77658893     0.03100
C43         C  0.62045485  0.51760069  0.77529467    -0.13000
C44         C  0.60670444  0.49550733  0.74965536     0.00600
C45         C  0.61941524  0.46866876  0.72550636    -0.11500
C46         C  0.64564596  0.46420519  0.72655355     0.03100
C47         C  0.65925149  0.48699204  0.75202723    -0.11000
H48         H  0.61071572  0.53790935  0.79430958     0.08700
H49         H  0.60887968  0.45141807  0.70570086     0.06200
H50         H  0.67957413  0.48467742  0.75240466     0.06100
O51         O  0.73119427  0.73300931  0.96434119    -0.71800
O52         O  0.76455586  0.80487053  0.03092008    -0.72000
O53         O  0.76516896  0.80116566  0.96279948    -0.71900
O54         O  0.73063033  0.73657975  0.03239268    -0.71900
O55         O  0.76061246  0.68581902  0.03412312    -0.71800
O56         O  0.79537477  0.75092770  0.96477361    -0.71800
O57         O  0.79464879  0.75432729  0.03300290    -0.71800
O58         O  0.76147430  0.68274786  0.96576571    -0.72000
V59         V  0.74848794  0.76791762  0.99766583     1.35200
V60         V  0.77744778  0.71940663  0.99943160     1.35200
C61         C  0.74081402  0.69603700  0.95328216     0.77500
C62         C  0.78518228  0.79176785  0.04353746     0.77500
C63         C  0.78597364  0.78673076  0.95147668     0.77400
C64         C  0.73975981  0.70030316  0.04530433     0.77300
C65         C  0.37491945  0.48557155  0.22461416     0.03100
C66         C  0.36258317  0.51012390  0.25035952    -0.13000
C67         C  0.37643841  0.53477829  0.27463769     0.00600
C68         C  0.40279565  0.53299224  0.27372802    -0.11500
C69         C  0.41526467  0.50798765  0.24825908     0.03100
C70         C  0.40121908  0.48431542  0.22378545    -0.11000
H71         H  0.34223563  0.51070925  0.25111015     0.08700
H72         H  0.41362471  0.55139321  0.29265398     0.06200
H73         H  0.41074572  0.46521283  0.20391222     0.06100
C74         C  0.64339759  0.52591389  0.22421930     0.03100
C75         C  0.61710172  0.52370272  0.22400961    -0.13000
C76         C  0.60428533  0.49803886  0.24873788     0.00600
C77         C  0.61802139  0.47316949  0.27300694    -0.11500
C78         C  0.64435095  0.47522173  0.27345467     0.03100
C79         C  0.65697336  0.50167742  0.24897378    -0.11000
H80         H  0.60661275  0.54282468  0.20507912     0.08700
H81         H  0.60820027  0.45271257  0.29184455     0.06200
H82         H  0.67732158  0.50299801  0.24894047     0.06100
O83         O  0.79180203  0.23774999  0.46213423    -0.71800
O84         O  0.75633635  0.30050520  0.53189899    -0.72000
O85         O  0.79126786  0.23354557  0.53015012    -0.71900
O86         O  0.75690875  0.30476955  0.46372134    -0.71900
O87         O  0.72726946  0.25343474  0.46209302    -0.71800
O88         O  0.76201240  0.18161708  0.52774146    -0.71800
O89         O  0.72705914  0.24881777  0.52997993    -0.71800
O90         O  0.76217318  0.18645374  0.45960226    -0.72000
V91         V  0.77349812  0.26816316  0.49692900     1.35200
V92         V  0.74520476  0.21856488  0.49490840     1.35200
C93         C  0.78313328  0.20124314  0.44911324     0.77500
C94         C  0.73562885  0.28534209  0.54306999     0.77500
C95         C  0.78267594  0.19512698  0.54002624     0.77400
C96         C  0.73609444  0.29143195  0.45181241     0.77300
O97         O  0.25649250  0.19708091  0.96910921    -0.71800
O98         O  0.29256231  0.27003775  0.03261263    -0.72000
O99         O  0.25883323  0.20168582  0.03702691    -0.71900
O100        O  0.29057285  0.26538828  0.96472913    -0.71900
O101        O  0.26073636  0.31645089  0.96493122    -0.71800
O102        O  0.22816585  0.25123903  0.03633919    -0.71800
O103        O  0.26207830  0.31986503  0.03306958    -0.71800
O104        O  0.22660864  0.24781989  0.96857004    -0.72000
V105        V  0.27401863  0.23452611  0.00082803     1.35200
V106        V  0.24499698  0.28293066  0.00070112     1.35200
C107        C  0.23524632  0.20979829  0.95805430     0.77500
C108        C  0.28345513  0.30745089  0.04368670     0.77500
C109        C  0.23808384  0.21542560  0.04890481     0.77400
C110        C  0.28125130  0.30197331  0.95258471     0.77300
C111        C  0.14557285  0.97668784  0.27421396     0.03100
C112        C  0.11924408  0.97658804  0.27267502    -0.13000
C113        C  0.10671166  0.00063550  0.24682015     0.00600
C114        C  0.12071191  0.02433494  0.22223329    -0.11500
C115        C  0.14704075  0.02556580  0.22401203     0.03100
C116        C  0.15940713  0.00084663  0.24966539    -0.11000
H117        H  0.10853140  0.95799615  0.29165600     0.08700
H118        H  0.11107454  0.04305363  0.20228496     0.06200
H119        H  0.17973498  0.00162312  0.25119755     0.06100
C120        C  0.87792847  0.98216984  0.21654189     0.03100
C121        C  0.90426396  0.98199722  0.21655769    -0.13000
C122        C  0.91759482  0.00790393  0.24058483     0.00600
C123        C  0.90437893  0.03333693  0.26515783    -0.11500
C124        C  0.87801539  0.03304945  0.26561395     0.03100
C125        C  0.86489374  0.00812207  0.24083623    -0.11000
H126        H  0.91436714  0.96199045  0.19770693     0.08700
H127        H  0.91458702  0.05251713  0.28428295     0.06200
H128        H  0.84452436  0.00807422  0.24094281     0.06100
C129        C  0.03837441  0.02051139  0.27082037    -0.11400
C130        C  0.02602261  0.00253602  0.24237594     0.15200
C131        C  0.04030688  0.98501197  0.21500874     0.02100
C132        C  0.06655401  0.98449135  0.21721789    -0.15700
C133        C  0.07894123  0.00215147  0.24582307    -0.10600
C134        C  0.06460571  0.02115854  0.27262474     0.08800
C135        C  0.99825124  0.00319317  0.24198066     0.09800
S136        S  0.02626045  0.96291944  0.17666788    -0.24900
H137        H  0.07743367  0.97036726  0.19640893     0.20100
S138        S  0.07857146  0.04828566  0.30917215    -0.30600
H139        H  0.02746332  0.03470252  0.29157705     0.10400
C140        C  0.98407951  0.96268971  0.24681552     0.03600
C141        C  0.95775999  0.96509938  0.24586752    -0.12900
C142        C  0.94537499  0.00729032  0.24041909    -0.08500
C143        C  0.95969306  0.04777941  0.23550446     0.07000
C144        C  0.98592090  0.04536993  0.23675957    -0.13600
S145        S  0.99950631  0.90829894  0.25515192    -0.30600
H146        H  0.94671441  0.93423654  0.24986621     0.11300
S147        S  0.94571749  0.10321032  0.22657785    -0.27700
H148        H  0.99685881  0.07644439  0.23294876     0.08500
H149        H  0.09947126  0.06629847  0.29180054     0.27000
H150        H  0.97759642  0.88131557  0.25689647     0.21800
H151        H  0.92491298  0.08594800  0.20869336     0.27100
H152        H  0.00457449  0.99059910  0.17757918     0.15900
C153        C  0.22603209  0.14277379  0.12739936    -0.11400
C154        C  0.20044529  0.13258438  0.12349746     0.15200
C155        C  0.18718741  0.15129681  0.09566361     0.02100
C156        C  0.19968790  0.17993086  0.07260049    -0.15700
C157        C  0.22540090  0.18931407  0.07606792    -0.10600
C158        C  0.23861749  0.17093570  0.10408421     0.08800
C159        C  0.18769548  0.10480136  0.14991763     0.09800
S160        S  0.15452366  0.13890420  0.08765198    -0.24900
H161        H  0.18947896  0.19352202  0.05100699     0.20100
S162        S  0.27121821  0.18362006  0.11223757    -0.30600
H163        H  0.23614787  0.12928917  0.14910301     0.10400
C164        C  0.19306567  0.05755018  0.15459622     0.03600
C165        C  0.17988179  0.03254359  0.17939533    -0.12900
C166        C  0.16155956  0.05396622  0.19969724    -0.08500
C167        C  0.15699038  0.10176386  0.19576536     0.07000
C168        C  0.16984428  0.12640939  0.17071622    -0.13600
S169        S  0.21585386  0.02866007  0.12802152    -0.30600
H170        H  0.18338031  0.99597620  0.18250092     0.11300
S171        S  0.13555225  0.13366420  0.22244840    -0.27700
H172        H  0.16608980  0.16292415  0.16757147     0.08500
H173        H  0.27029574  0.22908739  0.09974122     0.27000
H174        H  0.21486218  0.98564185  0.14451819     0.21800
H175        H  0.13965443  0.10715304  0.25183764     0.27100
H176        H  0.15472752  0.09428218  0.10168291     0.15900
C177        C  0.83407589  0.06010223  0.33889609    -0.11400
C178        C  0.83577844  0.10834996  0.34035890     0.15200
C179        C  0.85192273  0.13162900  0.31759395     0.02100
C180        C  0.86603950  0.10619245  0.29411129    -0.15700
C181        C  0.86406823  0.05797231  0.29240077    -0.10600
C182        C  0.84809069  0.03470513  0.31538221     0.08800
C183        C  0.82193619  0.13281428  0.36758848     0.09800
S184        S  0.85499858  0.19360359  0.31685175    -0.24900
H185        H  0.87819950  0.12420864  0.27645475     0.20100
S186        S  0.84536370  0.97266881  0.31676561    -0.30600
H187        H  0.82213099  0.04201754  0.35678052     0.10400
C188        C  0.79546060  0.13420958  0.36840977     0.03600
C189        C  0.78324785  0.15617048  0.39557176    -0.12900
C190        C  0.79696939  0.17671311  0.42198312    -0.08500
C191        C  0.82351203  0.17426734  0.42135082     0.07000
C192        C  0.83564427  0.15296635  0.39403306    -0.13600
S193        S  0.77726062  0.10932654  0.33436302    -0.30600
H194        H  0.76293450  0.15810865  0.39595442     0.11300
S195        S  0.84295523  0.19508915  0.45547569    -0.27700
H196        H  0.85597901  0.15092255  0.39381369     0.08500
H197        H  0.87020585  0.96338474  0.30664314     0.27000
H198        H  0.75342434  0.11919095  0.34802714     0.21800
H199        H  0.82671188  0.18008554  0.48143587     0.27100
H200        H  0.83046180  0.20327395  0.32805849     0.15900
C201        C  0.68460905  0.34571361  0.39806129    -0.11400
C202        C  0.69880117  0.36783615  0.37284861     0.15200
C203        C  0.72529261  0.36597754  0.37446551     0.02100
C204        C  0.73691541  0.34217133  0.40110848    -0.15700
C205        C  0.72272243  0.31914121  0.42594978    -0.10600
C206        C  0.69619939  0.32173466  0.42459628     0.08800
C207        C  0.68536556  0.39479723  0.34651283     0.09800
S208        S  0.74528734  0.39223057  0.34293070    -0.24900
H209        H  0.75725010  0.34036700  0.40181020     0.20100
S210        S  0.67608071  0.29740733  0.45679142    -0.30600
H211        H  0.66428378  0.34802994  0.39743832     0.10400
C212        C  0.66930402  0.37331561  0.32288003     0.03600
C213        C  0.65604106  0.40048869  0.29950863    -0.12900
C214        C  0.65856839  0.44869111  0.29913245    -0.08500
C215        C  0.67466188  0.47013389  0.32285404     0.07000
C216        C  0.68796382  0.44297217  0.34607976    -0.13600
S217        S  0.66629862  0.31123317  0.32171483    -0.30600
H218        H  0.64383906  0.38419577  0.28111122     0.11300
S219        S  0.67839550  0.53188174  0.32562945    -0.27700
H220        H  0.70005284  0.45957712  0.36449899     0.08500
H221        H  0.69200414  0.30860546  0.48404805     0.27000
H222        H  0.64873526  0.30923590  0.29511742     0.21800
H223        H  0.65379410  0.54298830  0.31551208     0.27100
H224        H  0.72858591  0.38679742  0.31561469     0.15900
C225        C  0.33522301  0.36261402  0.09649314    -0.11400
C226        C  0.32104060  0.38650631  0.12081804     0.15200
C227        C  0.29457193  0.38619772  0.11860247     0.02100
C228        C  0.28291035  0.36036219  0.09312326    -0.15700
C229        C  0.29703657  0.33563537  0.06905369    -0.10600
C230        C  0.32358159  0.33785559  0.07040467     0.08800
C231        C  0.33446024  0.41171252  0.14792370     0.09800
S232        S  0.27462224  0.41786999  0.14745944    -0.24900
H233        H  0.26256812  0.35937796  0.09223676     0.20100
S234        S  0.34366901  0.31182134  0.03888495    -0.30600
H235        H  0.35555979  0.36368273  0.09767171     0.10400
C236        C  0.33445260  0.39603541  0.18181105     0.03600
C237        C  0.34729514  0.42144975  0.20662007    -0.12900
C238        C  0.36035614  0.46181693  0.19805725    -0.08500
C239        C  0.36027281  0.47747532  0.16411953     0.07000
C240        C  0.34754293  0.45204312  0.13940137    -0.13600
S241        S  0.31890644  0.34284469  0.19317054    -0.30600
H242        H  0.34766491  0.40945266  0.23264357     0.11300
S243        S  0.37588473  0.52969672  0.15083316    -0.27700
H244        H  0.34752273  0.46408933  0.11335773     0.08500
H245        H  0.32813826  0.32345231  0.01128471     0.27000
H246        H  0.32492845  0.34384999  0.22790636     0.21800
H247        H  0.37293624  0.55356307  0.18163890     0.27100
H248        H  0.29168944  0.45365488  0.15421268     0.15900
C249        C  0.48415724  0.54195997  0.24535190    -0.11400
C250        C  0.49582546  0.49875482  0.24851776     0.15200
C251        C  0.48090866  0.45869727  0.25141715     0.02100
C252        C  0.45472576  0.46268073  0.25040285    -0.15700
C253        C  0.44301126  0.50592539  0.24736969    -0.10600
C254        C  0.45797984  0.54597397  0.24442983     0.08800
C255        C  0.52357315  0.49692542  0.24841161     0.09800
S256        S  0.49404711  0.40174073  0.25688575    -0.24900
H257        H  0.44334010  0.43186550  0.25284501     0.20100
S258        S  0.44492559  0.60288106  0.23839007    -0.30600
H259        H  0.49558838  0.57272784  0.24295632     0.10400
C260        C  0.53716854  0.48146444  0.21987205     0.03600
C261        C  0.56351721  0.48204777  0.22065412    -0.12900
C262        C  0.57649897  0.49789361  0.24937570    -0.08500
C263        C  0.56273209  0.51365150  0.27783320     0.07000
C264        C  0.53648711  0.51266645  0.27709744    -0.13600
S265        S  0.52098487  0.46223267  0.18219192    -0.30600
H266        H  0.57411798  0.47023925  0.19883766     0.11300
S267        S  0.57740638  0.53704940  0.31530192    -0.27700
H268        H  0.52598131  0.52498765  0.29887999     0.08500
H269        H  0.42373515  0.58845890  0.21996114     0.27000
H270        H  0.54247964  0.44818491  0.16411554     0.21800
H271        H  0.59776644  0.55757428  0.29827887     0.27100
H272        H  0.51606929  0.41565617  0.27360426     0.15900
C273        C  0.79869043  0.87566669  0.11562321    -0.11400
C274        C  0.82501607  0.87695181  0.11494305     0.15200
C275        C  0.83810391  0.84937053  0.09123940     0.02100
C276        C  0.82466014  0.82097734  0.06903021    -0.15700
C277        C  0.79827527  0.82001871  0.06934369    -0.10600
C278        C  0.78521762  0.84736074  0.09338287     0.08800
C279        C  0.83830309  0.90465119  0.14089651     0.09800
S280        S  0.87189716  0.84947798  0.08767426    -0.24900
H281        H  0.83491727  0.80041426  0.05067161     0.20100
S282        S  0.75156305  0.84579385  0.09841332    -0.30600
H283        H  0.78859151  0.89595827  0.13431008     0.10400
C284        C  0.83720833  0.95329673  0.14109471     0.03600
C285        C  0.85001961  0.97783588  0.16641246    -0.12900
C286        C  0.86393633  0.95466149  0.19139013    -0.08500
C287        C  0.86465702  0.90596304  0.19144208     0.07000
C288        C  0.85200105  0.88155249  0.16611420    -0.13600
S289        S  0.82032152  0.98413332  0.10843454    -0.30600
H290        H  0.84958936  0.01519205  0.16652978     0.11300
S291        S  0.88100519  0.87302524  0.22340682    -0.27700
H292        H  0.85258740  0.84417154  0.16623085     0.08500
H293        H  0.74959329  0.79784752  0.09335632     0.27000
H294        H  0.82586273  0.02887560  0.12004253     0.21800
H295        H  0.87717489  0.90458051  0.25002324     0.27100
H296        H  0.87524350  0.89556115  0.09786074     0.15900
C297        C  0.72369422  0.62528410  0.12185888    -0.11400
C298        C  0.69738931  0.62743322  0.12151576     0.15200
C299        C  0.68520266  0.65449621  0.09668874     0.02100
C300        C  0.69953320  0.67764044  0.07227743    -0.15700
C301        C  0.72591650  0.67535663  0.07231716    -0.10600
C302        C  0.73807656  0.64927713  0.09789819     0.08800
C303        C  0.68328040  0.60118546  0.14747536     0.09800
S304        S  0.65149878  0.66082406  0.09459693    -0.24900
H305        H  0.68991502  0.69757758  0.05296627     0.20100
S306        S  0.77173226  0.64671584  0.10243273    -0.30600
H307        H  0.73309837  0.60508728  0.14122662     0.10400
C308        C  0.66994174  0.56075494  0.13917613     0.03600
C309        C  0.65664371  0.53733261  0.16463549    -0.12900
C310        C  0.65669267  0.55328042  0.19824409    -0.08500
C311        C  0.66999039  0.59389758  0.20645916     0.07000
C312        C  0.68333144  0.61712709  0.18107094    -0.13600
S313        S  0.67057341  0.53818493  0.09646196    -0.30600
H314        H  0.64654081  0.50599889  0.15859425     0.11300
S315        S  0.67039221  0.61812020  0.24862713    -0.27700
H316        H  0.69353538  0.64828337  0.18739971     0.08500
H317        H  0.77540685  0.69398261  0.09586996     0.27000
H318        H  0.65491155  0.49998309  0.10247857     0.21800
H319        H  0.64645205  0.60243885  0.25832068     0.27100
H320        H  0.64683587  0.65488654  0.12942530     0.15900
C321        C  0.68643409  0.37549781  0.68127936    -0.11400
C322        C  0.68329225  0.38893489  0.64736135     0.15200
C323        C  0.66742414  0.42655186  0.63961607     0.02100
C324        C  0.65557702  0.45051902  0.66596659    -0.15700
C325        C  0.65873349  0.43723821  0.69996982    -0.10600
C326        C  0.67413790  0.39883503  0.70759992     0.08800
C327        C  0.69680828  0.36288784  0.62074053     0.09800
S328        S  0.66162895  0.44586579  0.59679424    -0.24900
H329        H  0.64371819  0.47981901  0.65990343     0.20100
S330        S  0.67829780  0.37700272  0.75008509    -0.30600
H331        H  0.69838767  0.34628452  0.68722606     0.10400
C332        C  0.71847370  0.38062844  0.60502808     0.03600
C333        C  0.73071872  0.35445875  0.58003298    -0.12900
C334        C  0.72190839  0.31049870  0.57042821    -0.08500
C335        C  0.70021514  0.29274526  0.58690171     0.07000
C336        C  0.68792109  0.31924849  0.61153209    -0.13600
S337        S  0.73072720  0.43632005  0.61722213    -0.30600
H338        H  0.74725668  0.36854201  0.56788152     0.11300
S339        S  0.68731601  0.23644902  0.57860870    -0.27700
H340        H  0.67133161  0.30556581  0.62392329     0.08500
H341        H  0.65414298  0.38882511  0.76169513     0.27000
H342        H  0.75081626  0.43729015  0.59401204     0.21800
H343        H  0.71036171  0.21369125  0.58392693     0.27100
H344        H  0.66475473  0.40273162  0.58105864     0.15900
C345        C  0.69019549  0.54363966  0.85000106    -0.11400
C346        C  0.68815007  0.59190995  0.85042157     0.15200
C347        C  0.67293799  0.61409989  0.82598569     0.02100
C348        C  0.65927415  0.58756517  0.80284066    -0.15700
C349        C  0.66103650  0.53923771  0.80263621    -0.10600
C350        C  0.67673917  0.51707232  0.82656090     0.08800
C351        C  0.70146896  0.61798799  0.87725977     0.09800
S352        S  0.67042872  0.67604674  0.82265473    -0.24900
H353        H  0.64755784  0.60482942  0.78425832     0.20100
S354        S  0.67978051  0.45518995  0.82934556    -0.30600
H355        H  0.70188428  0.52648621  0.86866055     0.10400
C356        C  0.68828169  0.64030872  0.90363615     0.03600
C357        C  0.70161445  0.66586296  0.92786274    -0.12900
C358        C  0.72792186  0.66912407  0.92660382    -0.08500
C359        C  0.74106633  0.64659721  0.90011185     0.07000
C360        C  0.72774500  0.62082485  0.87608105    -0.13600
S361        S  0.65455299  0.63503255  0.90710662    -0.30600
H362        H  0.69154606  0.68276413  0.94828409     0.11300
S363        S  0.77456074  0.65151065  0.89438046    -0.27700
H364        H  0.73787169  0.60391743  0.85567699     0.08500
H365        H  0.65527541  0.44508024  0.81839069     0.27000
H366        H  0.65156676  0.66405549  0.93543604     0.21800
H367        H  0.77561366  0.69856061  0.90310998     0.27100
H368        H  0.69456511  0.68592450  0.83509101     0.15900
C369        C  0.29634579  0.38161107  0.87811189    -0.11400
C370        C  0.32259337  0.37749831  0.87641186     0.15200
C371        C  0.33496523  0.34761713  0.89928363     0.02100
C372        C  0.32099851  0.32365459  0.92368390    -0.15700
C373        C  0.29468552  0.32752282  0.92538725    -0.10600
C374        C  0.28227332  0.35617958  0.90160602     0.08800
C375        C  0.33655996  0.40568792  0.85119881     0.09800
S376        S  0.36846320  0.33809847  0.89846152    -0.24900
H377        H  0.33085998  0.30170925  0.94153128     0.20100
S378        S  0.24859410  0.35982267  0.89849339    -0.30600
H379        H  0.28669273  0.40425658  0.86052591     0.09600
C380        C  0.33286942  0.40012540  0.81597497     0.03600
C381        C  0.34635492  0.42787013  0.79318675    -0.12900
C382        C  0.36357417  0.46097422  0.80476213    -0.08500
C383        C  0.36703509  0.46680402  0.84005731     0.07000
C384        C  0.35361007  0.43904637  0.86278686    -0.13600
S385        S  0.31185797  0.35637833  0.79987785    -0.30600
H386        H  0.34388459  0.42322515  0.76613012     0.11300
S387        S  0.38769067  0.50979540  0.85775633    -0.27700
H388        H  0.35623805  0.44383911  0.88982625     0.08500
H389        H  0.24519433  0.31202411  0.90255572     0.27000
H390        H  0.31460229  0.36715986  0.76526599     0.21800
H391        H  0.38414982  0.54254562  0.83185003     0.27100
H392        H  0.37126545  0.34364339  0.86320884     0.15900
C393        C  0.54014882  0.54379077  0.74846880    -0.11400
C394        C  0.52598895  0.50309463  0.75044030     0.15200
C395        C  0.53845308  0.46005614  0.75084772     0.02100
C396        C  0.56470206  0.45866187  0.74969494    -0.15700
C397        C  0.57895816  0.49935648  0.74848961    -0.10600
C398        C  0.56642695  0.54240653  0.74712927     0.08800
C399        C  0.49825367  0.50643178  0.75116884     0.09800
S400        S  0.52198885  0.40576931  0.75328955    -0.24900
H401        H  0.57413500  0.42551324  0.75064262     0.20100
S402        S  0.58274624  0.59656144  0.74242811    -0.30600
H403        H  0.53060594  0.57683012  0.74747684     0.10400
C404        C  0.48536924  0.52127425  0.78047042     0.03600
C405        C  0.45901509  0.52199652  0.78056323    -0.12900
C406        C  0.44528300  0.50819239  0.75191676    -0.08500
C407        C  0.45833032  0.49310797  0.72262055     0.07000
C408        C  0.48460745  0.49294005  0.72246223    -0.13600
S409        S  0.50249409  0.53799170  0.81803800    -0.30600
H410        H  0.44899334  0.53351604  0.80295576     0.11300
S411        S  0.44267688  0.47191369  0.68515943    -0.27700
H412        H  0.49454846  0.48115553  0.70004729     0.08500
H413        H  0.60287930  0.57875333  0.72332294     0.27000
H414        H  0.48147247  0.55041203  0.83769933     0.21800
H415        H  0.42217901  0.45221952  0.70240706     0.27100
H416        H  0.50168826  0.42198268  0.77279431     0.15900
C417        C  0.18378590  0.83489918  0.39284758    -0.11400
C418        C  0.19541017  0.87471486  0.38032457     0.15200
C419        C  0.21843569  0.88911459  0.39431015     0.02100
C420        C  0.22949338  0.86306453  0.42017177    -0.15700
C421        C  0.21827328  0.82235219  0.43253798    -0.10600
C422        C  0.19468696  0.80889302  0.41891704     0.08800
C423        C  0.18285943  0.90078491  0.35295533     0.09800
S424        S  0.23469905  0.94032131  0.38030764    -0.24900
H425        H  0.24736041  0.87450542  0.43022995     0.20100
S426        S  0.17714761  0.75955355  0.43340354    -0.30600
H427        H  0.16589063  0.82424009  0.38236480     0.10400
C428        C  0.18528537  0.88732825  0.31876374     0.03600
C429        C  0.17320624  0.91312506  0.29346122    -0.12900
C430        C  0.15869459  0.95197439  0.30177351    -0.08500
C431        C  0.15661677  0.96573414  0.33607834     0.07000
C432        C  0.16853261  0.93975436  0.36130272    -0.13600
S433        S  0.20405644  0.83767569  0.30746320    -0.30600
H434        H  0.17479895  0.90283614  0.26711781     0.11300
S435        S  0.13955814  0.01649670  0.34922692    -0.27700
H436        H  0.16689230  0.95025216  0.38762320     0.08500
H437        H  0.17825460  0.77261793  0.46769172     0.27000
H438        H  0.20052402  0.84087947  0.27217421     0.21800
H439        H  0.14401029  0.04217671  0.31955066     0.27100
H440        H  0.22650241  0.93907009  0.34645587     0.15900
C441        C  0.33473459  0.65908878  0.60254678    -0.11400
C442        C  0.32210099  0.62681994  0.62268751     0.15200
C443        C  0.29640927  0.61815077  0.61683401     0.02100
C444        C  0.28368564  0.64334314  0.59185045    -0.15700
C445        C  0.29619738  0.67632532  0.57180553    -0.10600
C446        C  0.32233554  0.68301963  0.57675017     0.08800
C447        C  0.33629619  0.60361924  0.64996764     0.09800
S448        S  0.27886224  0.57561563  0.64040154    -0.24900
H449        H  0.26379737  0.63719112  0.58819488     0.20100
S450        S  0.34140440  0.71977771  0.55033132    -0.30600
H451        H  0.35459645  0.66512824  0.60666711     0.10400
C452        C  0.35404117  0.56893782  0.64258596     0.03600
C453        C  0.36773662  0.54887827  0.66910862    -0.12900
C454        C  0.36417494  0.56312008  0.70282021    -0.08500
C455        C  0.34681508  0.59876285  0.71000316     0.07000
C456        C  0.33282336  0.61816634  0.68356320    -0.13600
S457        S  0.35868459  0.54936476  0.59951174    -0.30600
H458        H  0.38096488  0.52138999  0.66374321     0.11300
S459        S  0.34231286  0.62202986  0.75202764    -0.27700
H460        H  0.31952017  0.64552298  0.68906259     0.08500
H461        H  0.33085427  0.70372686  0.51979426     0.27000
H462        H  0.37814596  0.51790456  0.60654852     0.21800
H463        H  0.36700771  0.61402333  0.76325249     0.27100
H464        H  0.29918238  0.54581543  0.64673905     0.15900
C465        C  0.33293705  0.61978887  0.31914769    -0.11400
C466        C  0.33849790  0.61101578  0.35334274     0.15200
C467        C  0.35701696  0.57777016  0.36142843     0.02100
C468        C  0.36899070  0.55343038  0.33533178    -0.15700
C469        C  0.36346852  0.56228635  0.30111018    -0.10600
C470        C  0.34560428  0.59675367  0.29303712     0.08800
C471        C  0.32404755  0.63589344  0.37988101     0.09800
S472        S  0.36639185  0.56503141  0.40440731    -0.24900
H473        H  0.38278178  0.52732685  0.34178004     0.20100
S474        S  0.33874903  0.61423404  0.25009233    -0.30600
H475        H  0.31880683  0.64529893  0.31275282     0.10400
C476        C  0.32530927  0.68429507  0.38330179     0.03600
C477        C  0.31104481  0.70624755  0.40854814    -0.12900
C478        C  0.29565722  0.68092112  0.43077983    -0.08500
C479        C  0.29500735  0.63222119  0.42775990     0.07000
C480        C  0.30870555  0.61051701  0.40197817    -0.13600
S481        S  0.34571064  0.71810585  0.35634563    -0.30600
H482        H  0.31186778  0.74343097  0.41095946     0.11300
S483        S  0.27840005  0.59541614  0.45702722    -0.27700
H484        H  0.30786237  0.57328372  0.39957105     0.08500
H485        H  0.36320608  0.60697540  0.23760456     0.27000
H486        H  0.33842380  0.76172870  0.36856772     0.21800
H487        H  0.28616937  0.61978876  0.48606844     0.27100
H488        H  0.36215025  0.60965095  0.41722618     0.15900
C489        C  0.85493603  0.06321594  0.63513222    -0.11400
C490        C  0.83456489  0.09123350  0.64449155     0.15200
C491        C  0.82715666  0.09289373  0.67891290     0.02100
C492        C  0.84106822  0.06868799  0.70326911    -0.15700
C493        C  0.86176460  0.04117262  0.69407444    -0.10600
C494        C  0.86827818  0.03759910  0.65930979     0.08800
C495        C  0.82156412  0.11826594  0.61773319     0.09800
S496        S  0.80012137  0.12499234  0.69340866    -0.24900
H497        H  0.83567947  0.07141037  0.72973229     0.20100
S498        S  0.89267578  0.99974633  0.64385597    -0.30600
H499        H  0.86035135  0.06099819  0.60864833     0.10400
C500        C  0.82363255  0.16670190  0.61585288     0.03600
C501        C  0.81095996  0.19072555  0.59007006    -0.12900
C502        C  0.79637268  0.16740387  0.56579612    -0.08500
C503        C  0.79511067  0.11860140  0.56715769     0.07000
C504        C  0.80742783  0.09477599  0.59323594    -0.13600
S505        S  0.84293606  0.19786996  0.64573174    -0.30600
H506        H  0.81227268  0.22796939  0.58897104     0.11300
S507        S  0.77927765  0.08441458  0.53556120    -0.27700
H508        H  0.80626065  0.05745943  0.59422352     0.08500
H509        H  0.88910638  0.96542909  0.66864051     0.27000
H510        H  0.83680220  0.24248270  0.63432534     0.21800
H511        H  0.78770267  0.11114976  0.50797875     0.27100
H512        H  0.78627402  0.12146435  0.66318214     0.15900
C513        C  0.85092261  0.92808968  0.85663463    -0.11400
C514        C  0.84006233  0.88598822  0.84719435     0.15200
C515        C  0.84115764  0.87170131  0.81297826     0.02100
C516        C  0.85269303  0.90018654  0.78887713    -0.15700
C517        C  0.86360029  0.94230073  0.79831581    -0.10600
C518        C  0.86256875  0.95646092  0.83260695     0.08800
C519        C  0.82645405  0.85922730  0.87329300     0.09800
S520        S  0.82832216  0.81758363  0.79856831    -0.24900
H521        H  0.85365149  0.88900660  0.76266119     0.20100
S522        S  0.87522182  0.01063464  0.84722717    -0.30600
H523        H  0.84988592  0.93928885  0.88284322     0.10400
C524        C  0.83925710  0.83110165  0.89671136     0.03600
C525        C  0.82556040  0.80735240  0.92163462    -0.12900
C526        C  0.79923901  0.81113343  0.92363186    -0.08500
C527        C  0.78648572  0.83847900  0.89926914     0.07000
C528        C  0.80024889  0.86262286  0.87479059    -0.13600
S529        S  0.87299652  0.82511591  0.89450024    -0.30600
H530        H  0.83545322  0.78626231  0.93995385     0.11300
S531        S  0.75274676  0.84256240  0.89685223    -0.27700
H532        H  0.79043466  0.88384742  0.85641898     0.08500
H533        H  0.87160588  0.03498163  0.81676067     0.27000
H534        H  0.87550187  0.79433630  0.92190064     0.21800
H535        H  0.74882172  0.79503346  0.90200927     0.27100
H536        H  0.83188213  0.79333422  0.82907535     0.15900
C537        C  0.16742945  0.86428582  0.68021189    -0.11400
C538        C  0.18300102  0.88890328  0.65798585     0.15200
C539        C  0.18618145  0.93689049  0.66261315     0.02100
C540        C  0.17408354  0.95893654  0.68968572    -0.15700
C541        C  0.15836911  0.93436720  0.71186949    -0.10600
C542        C  0.15531751  0.88630850  0.70724978     0.08800
C543        C  0.19600907  0.86329116  0.63068744     0.09800
S544        S  0.20505976  0.97199379  0.63466025    -0.24900
H545        H  0.17636483  0.99584338  0.69292367     0.20100
S546        S  0.13696871  0.85082713  0.73551021    -0.30600
H547        H  0.16511774  0.82740765  0.67684651     0.10400
C548        C  0.22202478  0.85447790  0.63205306     0.03600
C549        C  0.23368315  0.83143022  0.60499403    -0.12900
C550        C  0.21975404  0.81623387  0.57692022    -0.08500
C551        C  0.19362033  0.82470580  0.57586655     0.07000
C552        C  0.18200605  0.84768784  0.60288145    -0.13600
S553        S  0.24019822  0.87140771  0.66866503    -0.30600
H554        H  0.25366918  0.82450252  0.60589751     0.11300
S555        S  0.17438469  0.80944402  0.54003261    -0.27700
H556        H  0.16200091  0.85457929  0.60184758     0.08500
H557        H  0.14128543  0.87740253  0.76476895     0.27000
H558        H  0.26333270  0.85343854  0.65748046     0.21800
H559        H  0.19260420  0.82135378  0.51567413     0.27100
H560        H  0.20152740  0.94519875  0.60533916     0.15900
C561        C  0.18625024  0.16433684  0.89524062    -0.11400
C562        C  0.19578478  0.12025437  0.88848297     0.15200
C563        C  0.21784978  0.10544121  0.90497273     0.02100
C564        C  0.23000579  0.13523159  0.92754215    -0.15700
C565        C  0.22097110  0.18015347  0.93389224    -0.10600
C566        C  0.19851285  0.19445958  0.91746102     0.08800
C567        C  0.18271591  0.09145578  0.86312051     0.09800
S568        S  0.23140594  0.04895090  0.89862487    -0.24900
H569        H  0.24686633  0.12306284  0.94006835     0.20100
S570        S  0.18441803  0.25050029  0.92294087    -0.30600
H571        H  0.16925598  0.17566675  0.88257025     0.10400
C572        C  0.16591984  0.05629277  0.87271929     0.03600
C573        C  0.15382587  0.03036745  0.84751238    -0.12900
C574        C  0.15798903  0.03932902  0.81290581    -0.08500
C575        C  0.17445012  0.07540202  0.80347284     0.07000
C576        C  0.18680692  0.10063355  0.82864529    -0.13600
S577        S  0.15965062  0.04497045  0.91697992    -0.30600
H578        H  0.14108416  0.00294036  0.85468565     0.11300
S579        S  0.17972088  0.09230528  0.75998369    -0.27700
H580        H  0.19944300  0.12821865  0.82134924     0.08500
H581        H  0.20644910  0.27409841  0.91384159     0.27000
H582        H  0.14084263  0.01164962  0.91182813     0.21800
H583        H  0.15526818  0.08240569  0.74868380     0.27100
H584        H  0.22282641  0.04221399  0.86531340     0.15900
C585        C  0.98277264  0.01659151  0.78145223    -0.11400
C586        C  0.99666695  0.00058364  0.75356890     0.15200
C587        C  0.98392172  0.98694058  0.72381041     0.02100
C588        C  0.95764641  0.98826791  0.72297967    -0.15700
C589        C  0.94370199  0.00379225  0.75101640    -0.10600
C590        C  0.95654978  0.01916261  0.78029211     0.08800
C591        C  0.02432097  0.99709611  0.75670609     0.09800
S592        S  0.00006859  0.96719064  0.68623613    -0.24900
H593        H  0.94795951  0.97647102  0.70041817     0.20100
S594        S  0.94070233  0.04322071  0.81670576    -0.30600
H595        H  0.99248514  0.02737038  0.80426640     0.10400
C596        C  0.03948252  0.03672020  0.75953928     0.03600
C597        C  0.06560420  0.03173488  0.76201448    -0.12900
C598        C  0.07695539  0.98790811  0.76217458    -0.08500
C599        C  0.06156045  0.94819780  0.76043145     0.07000
C600        C  0.03552316  0.95327541  0.75727824    -0.13600
S601        S  0.02571255  0.09373384  0.75859857    -0.30600
H602        H  0.07734292  0.06217058  0.76310129     0.11300
S603        S  0.07369130  0.89021435  0.76341202    -0.27700
H604        H  0.02380593  0.92279560  0.75577328     0.08500
H605        H  0.92045015  0.06211862  0.79848191     0.27000
H606        H  0.04800719  0.11838431  0.76465393     0.21800
H607        H  0.09374249  0.90129917  0.78511703     0.27100
H608        H  0.02168676  0.99431856  0.69073403     0.15900
loop_ 
_geom_bond_atom_site_label_1 
_geom_bond_atom_site_label_2 
_geom_bond_distance 
_geom_bond_site_symmetry_2 
_ccdc_geom_bond_type 
C1            C2   1.402       .  A
C1            C6   1.404   1_545  A
C1          C574   1.481       .  S
C2            C3   1.403   1_545  A
C2            H7   1.084       .  S
C3            C4   1.404       .  A
C3          C598   1.484       .  S
C4            C5   1.404       .  A
C4            H8   1.084       .  S
C5            C6   1.404       .  A
C5          C541   1.480       .  S
C6            H9   1.084       .  S
C10          C11   1.403       .  A
C10          C15   1.400       .  A
C10         C517   1.477       .  S
C11          C12   1.407   1_565  A
C11          H16   1.084       .  S
C12          C13   1.407       .  A
C12         C493   1.489       .  S
C13          C14   1.405       .  A
C13          H17   1.084       .  S
C14          C15   1.402   1_545  A
C14         C589   1.481       .  S
C15          H18   1.084       .  S
O19          V27   1.903       .  S
O19          C29   1.266       .  A
O20          V27   1.901       .  S
O20          C30   1.264       .  A
O21          V27   1.900       .  S
O21          C31   1.264       .  A
O22          V27   1.902       .  S
O22          C32   1.265       .  A
O23          V28   1.895       .  S
O23          C32   1.263       .  A
O24          V28   1.898       .  S
O24          C31   1.265       .  A
O25          V28   1.897       .  S
O25          C30   1.266       .  A
O26          V28   1.893       .  S
O26          C29   1.263       .  A
V27          V28   2.084       .  T
C29         C445   1.485       .  S
C30         C421   1.491       .  S
C31         C478   1.483       .  S
C32         C550   1.474       .  S
C33          C34   1.401       .  A
C33          C38   1.402       .  A
C33         C454   1.477       .  S
C34          C35   1.403       .  A
C34          H39   1.084       .  S
C35          C36   1.405       .  A
C35         C406   1.481       .  S
C36          C37   1.405       .  A
C36          H40   1.084       .  S
C37          C38   1.403       .  A
C37         C382   1.482       .  S
C38          H41   1.084       .  S
C42          C43   1.404       .  A
C42          C47   1.404       .  A
C42         C349   1.481       .  S
C43          C44   1.404       .  A
C43          H48   1.084       .  S
C44          C45   1.402       .  A
C44         C397   1.482       .  S
C45          C46   1.403       .  A
C45          H49   1.084       .  S
C46          C47   1.404       .  A
C46         C325   1.480       .  S
C47          H50   1.084       .  S
O51          V59   1.898       .  S
O51          C61   1.264       .  A
O52          V59   1.898   1_554  S
O52          C62   1.264       .  A
O53          V59   1.898       .  S
O53          C63   1.264       .  A
O54          V59   1.897   1_554  S
O54          C64   1.264       .  A
O55          V60   1.902   1_554  S
O55          C64   1.265       .  A
O56          V60   1.900       .  S
O56          C63   1.265       .  A
O57          V60   1.902   1_554  S
O57          C62   1.265       .  A
O58          V60   1.902       .  S
O58          C61   1.265       .  A
V59          V60   2.086       .  T
C61         C358   1.479       .  S
C62         C277   1.481       .  S
C63         C526   1.484       .  S
C64         C301   1.482       .  S
C65          C66   1.401       .  A
C65          C70   1.401       .  A
C65         C238   1.475       .  S
C66          C67   1.405       .  A
C66          H71   1.084       .  S
C67          C68   1.404       .  A
C67         C469   1.482       .  S
C68          C69   1.404       .  A
C68          H72   1.084       .  S
C69          C70   1.401       .  A
C69         C253   1.478       .  S
C70          H73   1.084       .  S
C74          C75   1.401       .  A
C74          C79   1.403       .  A
C74         C310   1.475       .  S
C75          C76   1.403       .  A
C75          H80   1.084       .  S
C76          C77   1.403       .  A
C76         C262   1.479       .  S
C77          C78   1.403       .  A
C77          H81   1.084       .  S
C78          C79   1.403       .  A
C78         C214   1.479       .  S
C79          H82   1.084       .  S
O83          V91   1.898       .  S
O83          C93   1.264       .  A
O84          V91   1.899       .  S
O84          C94   1.266       .  A
O85          V91   1.901       .  S
O85          C95   1.265       .  A
O86          V91   1.902       .  S
O86          C96   1.265       .  A
O87          V92   1.899       .  S
O87          C96   1.264       .  A
O88          V92   1.903       .  S
O88          C95   1.265       .  A
O89          V92   1.899       .  S
O89          C94   1.264       .  A
O90          V92   1.901       .  S
O90          C93   1.265       .  A
V91          V92   2.085       .  T
C93         C190   1.479       .  S
C94         C334   1.491       .  S
C95         C502   1.486       .  S
C96         C205   1.480       .  S
O97         V105   1.902   1_556  S
O97         C107   1.267       .  A
O98         V105   1.900       .  S
O98         C108   1.264       .  A
O99         V105   1.895       .  S
O99         C109   1.263       .  A
O100        V105   1.897   1_556  S
O100        C110   1.264       .  A
O101        V106   1.905   1_556  S
O101        C110   1.266       .  A
O102        V106   1.902       .  S
O102        C109   1.265       .  A
O103        V106   1.899       .  S
O103        C108   1.265       .  A
O104        V106   1.898   1_556  S
O104        C107   1.263       .  A
V105        V106   2.085       .  T
C107        C565   1.492       .  S
C108        C229   1.481       .  S
C109        C157   1.474       .  S
C110        C373   1.486       .  S
C111        C112   1.403       .  A
C111        C116   1.403   1_565  A
C111        C430   1.477       .  S
C112        C113   1.403   1_565  A
C112        H117   1.084       .  S
C113        C114   1.402       .  A
C113        C133   1.479       .  S
C114        C115   1.404       .  A
C114        H118   1.084       .  S
C115        C116   1.403       .  A
C115        C166   1.481       .  S
C116        H119   1.084       .  S
C120        C121   1.402       .  A
C120        C125   1.400   1_565  A
C120        C286   1.475       .  S
C121        C122   1.403   1_565  A
C121        H126   1.084       .  S
C122        C123   1.405       .  A
C122        C142   1.479       .  S
C123        C124   1.403       .  A
C123        H127   1.084       .  S
C124        C125   1.402       .  A
C124        C181   1.478       .  S
C125        H128   1.084       .  S
C129        C130   1.401       .  A
C129        C134   1.398       .  A
C129        H139   1.083       .  S
C130        C131   1.413   1_545  A
C130        C135   1.478   1_455  S
C131        C132   1.400       .  A
C131        S136   1.805       .  S
C132        C133   1.404   1_565  A
C132        H137   1.083       .  S
C133        C134   1.414       .  A
C134        S138   1.803       .  S
C135        C140   1.409   1_545  A
C135        C144   1.402       .  A
S136        H152   1.405       .  S
S138        H149   1.406       .  S
C140        C141   1.403       .  A
C140        S145   1.806       .  S
C141        C142   1.405   1_565  A
C141        H146   1.082       .  S
C142        C143   1.413       .  A
C143        C144   1.399       .  A
C143        S147   1.804       .  S
C144        H148   1.083       .  S
S145        H150   1.407       .  S
S147        H151   1.406       .  S
C153        C154   1.403       .  A
C153        C158   1.399       .  A
C153        H163   1.084       .  S
C154        C155   1.413       .  A
C154        C159   1.481       .  S
C155        C156   1.399       .  A
C155        S160   1.804       .  S
C156        C157   1.403       .  A
C156        H161   1.084       .  S
C157        C158   1.414       .  A
C158        S162   1.804       .  S
C159        C164   1.410       .  A
C159        C168   1.401       .  A
S160        H176   1.406       .  S
S162        H173   1.407       .  S
C164        C165   1.404       .  A
C164        S169   1.806       .  S
C165        C166   1.405       .  A
C165        H170   1.082   1_545  S
C166        C167   1.414       .  A
C167        C168   1.397       .  A
C167        S171   1.805       .  S
C168        H172   1.084       .  S
S169        H174   1.407   1_545  S
S171        H175   1.407       .  S
C177        C178   1.402       .  A
C177        C182   1.398       .  A
C177        H187   1.084       .  S
C178        C179   1.413       .  A
C178        C183   1.481       .  S
C179        C180   1.400       .  A
C179        S184   1.804       .  S
C180        C181   1.403       .  A
C180        H185   1.084       .  S
C181        C182   1.413       .  A
C182        S186   1.804   1_545  S
C183        C188   1.410       .  A
C183        C192   1.401       .  A
S184        H200   1.406       .  S
S186        H197   1.406       .  S
C188        C189   1.404       .  A
C188        S193   1.807       .  S
C189        C190   1.405       .  A
C189        H194   1.083       .  S
C190        C191   1.415       .  A
C191        C192   1.398       .  A
C191        S195   1.803       .  S
C192        H196   1.084       .  S
S193        H198   1.407       .  S
S195        H199   1.408       .  S
C201        C202   1.403       .  A
C201        C206   1.399       .  A
C201        H211   1.084       .  S
C202        C203   1.413       .  A
C202        C207   1.483       .  S
C203        C204   1.400       .  A
C203        S208   1.804       .  S
C204        C205   1.405       .  A
C204        H209   1.084       .  S
C205        C206   1.415       .  A
C206        S210   1.803       .  S
C207        C212   1.411       .  A
C207        C216   1.403       .  A
S208        H224   1.406       .  S
S210        H221   1.407       .  S
C212        C213   1.402       .  A
C212        S217   1.807       .  S
C213        C214   1.403       .  A
C213        H218   1.083       .  S
C214        C215   1.413       .  A
C215        C216   1.399       .  A
C215        S219   1.804       .  S
C216        H220   1.084       .  S
S217        H222   1.407       .  S
S219        H223   1.406       .  S
C225        C226   1.402       .  A
C225        C230   1.400       .  A
C225        H235   1.084       .  S
C226        C227   1.412       .  A
C226        C231   1.479       .  S
C227        C228   1.399       .  A
C227        S232   1.805       .  S
C228        C229   1.405       .  A
C228        H233   1.084       .  S
C229        C230   1.416       .  A
C230        S234   1.803       .  S
C231        C236   1.410       .  A
C231        C240   1.402       .  A
S232        H248   1.405       .  S
S234        H245   1.408       .  S
C236        C237   1.403       .  A
C236        S241   1.806       .  S
C237        C238   1.402       .  A
C237        H242   1.083       .  S
C238        C239   1.412       .  A
C239        C240   1.398       .  A
C239        S243   1.805       .  S
C240        H244   1.084       .  S
S241        H246   1.407       .  S
S243        H247   1.406       .  S
C249        C250   1.402       .  A
C249        C254   1.399       .  A
C249        H259   1.084       .  S
C250        C251   1.412       .  A
C250        C255   1.478       .  S
C251        C252   1.399       .  A
C251        S256   1.804       .  S
C252        C253   1.404       .  A
C252        H257   1.084       .  S
C253        C254   1.413       .  A
C254        S258   1.804       .  S
C255        C260   1.409       .  A
C255        C264   1.401       .  A
S256        H272   1.405       .  S
S258        H269   1.406       .  S
C260        C261   1.403       .  A
C260        S265   1.806       .  S
C261        C262   1.405       .  A
C261        H266   1.083       .  S
C262        C263   1.414       .  A
C263        C264   1.398       .  A
C263        S267   1.804       .  S
C264        H268   1.084       .  S
S265        H270   1.407       .  S
S267        H271   1.406       .  S
C273        C274   1.402       .  A
C273        C278   1.400       .  A
C273        H283   1.084       .  S
C274        C275   1.412       .  A
C274        C279   1.481       .  S
C275        C276   1.400       .  A
C275        S280   1.804       .  S
C276        C277   1.405       .  A
C276        H281   1.084       .  S
C277        C278   1.416       .  A
C278        S282   1.803       .  S
C279        C284   1.411       .  A
C279        C288   1.403       .  A
S280        H296   1.406       .  S
S282        H293   1.408       .  S
C284        C285   1.404       .  A
C284        S289   1.806       .  S
C285        C286   1.403       .  A
C285        H290   1.083   1_565  S
C286        C287   1.412       .  A
C287        C288   1.398       .  A
C287        S291   1.804       .  S
C288        H292   1.084       .  S
S289        H294   1.407   1_565  S
S291        H295   1.406       .  S
C297        C298   1.402       .  A
C297        C302   1.400       .  A
C297        H307   1.084       .  S
C298        C299   1.412       .  A
C298        C303   1.479       .  S
C299        C300   1.399       .  A
C299        S304   1.805       .  S
C300        C301   1.406       .  A
C300        H305   1.084       .  S
C301        C302   1.416       .  A
C302        S306   1.802       .  S
C303        C308   1.410       .  A
C303        C312   1.402       .  A
S304        H320   1.405       .  S
S306        H317   1.408       .  S
C308        C309   1.403       .  A
C308        S313   1.806       .  S
C309        C310   1.403       .  A
C309        H314   1.083       .  S
C310        C311   1.412       .  A
C311        C312   1.399       .  A
C311        S315   1.804       .  S
C312        H316   1.084       .  S
S313        H318   1.407       .  S
S315        H319   1.406       .  S
C321        C322   1.402       .  A
C321        C326   1.400       .  A
C321        H331   1.084       .  S
C322        C323   1.412       .  A
C322        C327   1.478       .  S
C323        C324   1.398       .  A
C323        S328   1.805       .  S
C324        C325   1.404       .  A
C324        H329   1.084       .  S
C325        C326   1.414       .  A
C326        S330   1.803       .  S
C327        C332   1.406       .  A
C327        C336   1.399       .  A
S328        H344   1.405       .  S
S330        H341   1.406       .  S
C332        C333   1.403       .  A
C332        S337   1.807       .  S
C333        C334   1.410       .  A
C333        H338   1.082       .  S
C334        C335   1.421       .  A
C335        C336   1.399       .  A
C335        S339   1.801       .  S
C336        H340   1.084       .  S
S337        H342   1.407       .  S
S339        H343   1.408       .  S
C345        C346   1.403       .  A
C345        C350   1.401       .  A
C345        H355   1.084       .  S
C346        C347   1.413       .  A
C346        C351   1.482       .  S
C347        C348   1.399       .  A
C347        S352   1.805       .  S
C348        C349   1.403       .  A
C348        H353   1.084       .  S
C349        C350   1.414       .  A
C350        S354   1.803       .  S
C351        C356   1.410       .  A
C351        C360   1.402       .  A
S352        H368   1.406       .  S
S354        H365   1.406       .  S
C356        C357   1.403       .  A
C356        S361   1.807       .  S
C357        C358   1.404       .  A
C357        H362   1.083       .  S
C358        C359   1.415       .  A
C359        C360   1.400       .  A
C359        S363   1.803       .  S
C360        H364   1.084       .  S
S361        H366   1.407       .  S
S363        H367   1.407       .  S
C369        C370   1.404       .  A
C369        C374   1.400       .  A
C369        H379   1.084       .  S
C370        C371   1.413       .  A
C370        C375   1.485       .  S
C371        C372   1.400       .  A
C371        S376   1.804       .  S
C372        C373   1.406       .  A
C372        H377   1.084       .  S
C373        C374   1.416       .  A
C374        S378   1.800       .  S
C375        C380   1.412       .  A
C375        C384   1.404       .  A
S376        H392   1.406       .  S
S378        H389   1.406       .  S
C380        C381   1.403       .  A
C380        S385   1.807       .  S
C381        C382   1.404       .  A
C381        H386   1.083       .  S
C382        C383   1.414       .  A
C383        C384   1.400       .  A
C383        S387   1.804       .  S
C384        H388   1.084       .  S
S385        H390   1.407       .  S
S387        H391   1.406       .  S
C393        C394   1.403       .  A
C393        C398   1.400       .  A
C393        H403   1.084       .  S
C394        C395   1.412       .  A
C394        C399   1.480       .  S
C395        C396   1.398       .  A
C395        S400   1.804       .  S
C396        C397   1.404       .  A
C396        H401   1.084       .  S
C397        C398   1.415       .  A
C398        S402   1.804       .  S
C399        C404   1.409       .  A
C399        C408   1.401       .  A
S400        H416   1.406       .  S
S402        H413   1.406       .  S
C404        C405   1.403       .  A
C404        S409   1.806       .  S
C405        C406   1.404       .  A
C405        H410   1.083       .  S
C406        C407   1.415       .  A
C407        C408   1.399       .  A
C407        S411   1.804       .  S
C408        H412   1.084       .  S
S409        H414   1.407       .  S
S411        H415   1.406       .  S
C417        C418   1.399       .  A
C417        C422   1.400       .  A
C417        H427   1.084       .  S
C418        C419   1.408       .  A
C418        C423   1.477       .  S
C419        C420   1.398       .  A
C419        S424   1.805       .  S
C420        C421   1.410       .  A
C420        H425   1.083       .  S
C421        C422   1.421       .  A
C422        S426   1.801       .  S
C423        C428   1.409       .  A
C423        C432   1.401       .  A
S424        H440   1.405       .  S
S426        H437   1.405       .  S
C428        C429   1.402       .  A
C428        S433   1.806       .  S
C429        C430   1.403       .  A
C429        H434   1.083       .  S
C430        C431   1.414       .  A
C431        C432   1.399       .  A
C431        S435   1.803   1_565  S
C432        H436   1.084       .  S
S433        H438   1.407       .  S
S435        H439   1.406       .  S
C441        C442   1.399       .  A
C441        C446   1.396       .  A
C441        H451   1.084       .  S
C442        C443   1.410       .  A
C442        C447   1.476       .  S
C443        C444   1.400       .  A
C443        S448   1.804       .  S
C444        C445   1.407       .  A
C444        H449   1.084       .  S
C445        C446   1.419       .  A
C446        S450   1.802       .  S
C447        C452   1.408       .  A
C447        C456   1.401       .  A
S448        H464   1.406       .  S
S450        H461   1.408       .  S
C452        C453   1.401       .  A
C452        S457   1.806       .  S
C453        C454   1.404       .  A
C453        H458   1.083       .  S
C454        C455   1.413       .  A
C455        C456   1.399       .  A
C455        S459   1.804       .  S
C456        H460   1.084       .  S
S457        H462   1.407       .  S
S459        H463   1.406       .  S
C465        C466   1.403       .  A
C465        C470   1.399       .  A
C465        H475   1.084       .  S
C466        C467   1.414       .  A
C466        C471   1.484       .  S
C467        C468   1.400       .  A
C467        S472   1.804       .  S
C468        C469   1.404       .  A
C468        H473   1.084       .  S
C469        C470   1.414       .  A
C470        S474   1.804       .  S
C471        C476   1.411       .  A
C471        C480   1.402       .  A
S472        H488   1.406       .  S
S474        H485   1.407       .  S
C476        C477   1.403       .  A
C476        S481   1.807       .  S
C477        C478   1.406       .  A
C477        H482   1.083       .  S
C478        C479   1.417       .  A
C479        C480   1.399       .  A
C479        S483   1.802       .  S
C480        H484   1.084       .  S
S481        H486   1.407       .  S
S483        H487   1.408       .  S
C489        C490   1.403       .  A
C489        C494   1.401       .  A
C489        H499   1.084       .  S
C490        C491   1.413       .  A
C490        C495   1.485       .  S
C491        C492   1.401       .  A
C491        S496   1.805       .  S
C492        C493   1.406       .  A
C492        H497   1.084       .  S
C493        C494   1.417       .  A
C494        S498   1.804   1_545  S
C495        C500   1.410       .  A
C495        C504   1.402       .  A
S496        H512   1.405       .  S
S498        H509   1.407       .  S
C500        C501   1.404       .  A
C500        S505   1.807       .  S
C501        C502   1.407       .  A
C501        H506   1.082       .  S
C502        C503   1.417       .  A
C503        C504   1.401       .  A
C503        S507   1.802       .  S
C504        H508   1.084       .  S
S505        H510   1.407       .  S
S507        H511   1.408       .  S
C513        C514   1.401       .  A
C513        C518   1.399       .  A
C513        H523   1.084       .  S
C514        C515   1.412       .  A
C514        C519   1.477       .  S
C515        C516   1.400       .  A
C515        S520   1.804       .  S
C516        C517   1.403       .  A
C516        H521   1.084       .  S
C517        C518   1.413       .  A
C518        S522   1.804   1_565  S
C519        C524   1.407       .  A
C519        C528   1.399       .  A
S520        H536   1.405       .  S
S522        H533   1.406       .  S
C524        C525   1.403       .  A
C524        S529   1.806       .  S
C525        C526   1.407       .  A
C525        H530   1.082       .  S
C526        C527   1.418       .  A
C527        C528   1.399       .  A
C527        S531   1.802       .  S
C528        H532   1.084       .  S
S529        H534   1.407       .  S
S531        H535   1.408       .  S
C537        C538   1.401       .  A
C537        C542   1.398       .  A
C537        H547   1.084       .  S
C538        C539   1.413       .  A
C538        C543   1.478       .  S
C539        C540   1.399       .  A
C539        S544   1.805       .  S
C540        C541   1.404       .  A
C540        H545   1.084       .  S
C541        C542   1.414       .  A
C542        S546   1.803       .  S
C543        C548   1.409       .  A
C543        C552   1.402       .  A
S544        H560   1.405       .  S
S546        H557   1.406       .  S
C548        C549   1.402       .  A
C548        S553   1.807       .  S
C549        C550   1.404       .  A
C549        H554   1.083       .  S
C550        C551   1.413       .  A
C551        C552   1.399       .  A
C551        S555   1.801       .  S
C552        H556   1.084       .  S
S553        H558   1.407       .  S
S555        H559   1.407       .  S
C561        C562   1.399       .  A
C561        C566   1.399       .  A
C561        H571   1.084       .  S
C562        C563   1.409       .  A
C562        C567   1.478       .  S
C563        C564   1.399       .  A
C563        S568   1.805       .  S
C564        C565   1.409       .  A
C564        H569   1.083       .  S
C565        C566   1.422       .  A
C566        S570   1.801       .  S
C567        C572   1.408       .  A
C567        C576   1.401       .  A
S568        H584   1.404       .  S
S570        H581   1.404       .  S
C572        C573   1.403       .  A
C572        S577   1.805       .  S
C573        C574   1.406       .  A
C573        H578   1.083       .  S
C574        C575   1.414       .  A
C575        C576   1.398       .  A
C575        S579   1.804       .  S
C576        H580   1.084       .  S
S577        H582   1.407       .  S
S579        H583   1.406       .  S
C585        C586   1.402       .  A
C585        C590   1.399       .  A
C585        H595   1.084       .  S
C586        C587   1.412   1_545  A
C586        C591   1.481   1_645  S
C587        C588   1.400       .  A
C587        S592   1.804   1_655  S
C588        C589   1.404   1_565  A
C588        H593   1.084       .  S
C589        C590   1.414       .  A
C590        S594   1.803       .  S
C591        C596   1.409   1_565  A
C591        C600   1.402       .  A
S592        H608   1.406       .  S
S594        H605   1.406       .  S
C596        C597   1.401       .  A
C596        S601   1.807       .  S
C597        C598   1.406   1_545  A
C597        H602   1.082       .  S
C598        C599   1.415       .  A
C599        C600   1.399       .  A
C599        S603   1.803       .  S
C600        H604   1.084       .  S
S601        H606   1.407       .  S
S603        H607   1.406       .  S
