geometry optimzed in LAMMPS
_audit_creation_date              2020-11-30 
_audit_creation_method            'lammps2cif' 
_symmetry_space_group_name_H-M    'P1' 
_symmetry_Int_Tables_number       1 
_symmetry_cell_setting            triclinic 
loop_ 
_symmetry_equiv_pos_as_xyz 
  x,y,z 
_cell_length_a                    47.05681058 
_cell_length_b                    47.06535242193823 
_cell_length_c                    30.303589147442022 
_cell_angle_alpha                 90.4782770299371 
_cell_angle_beta                  89.30493337130522 
_cell_angle_gamma                 89.94548744353274 
loop_ 
_atom_site_label 
_atom_site_type_symbol 
_atom_site_fract_x 
_atom_site_fract_y 
_atom_site_fract_z 
_atom_site_charge 
O1          O  0.39215201  0.82856408  0.99074970    -0.74000
O2          O  0.39041040  0.90965637  0.98722972    -0.74100
O3          O  0.39134593  0.87070184  0.05228448    -0.74100
O4          O  0.39142605  0.86765254  0.92613145    -0.74200
O5          O  0.34415538  0.86510902  0.92694619    -0.74100
O6          O  0.34402544  0.87108133  0.05322132    -0.74100
O7          O  0.34309689  0.90862508  0.98610904    -0.74100
O8          O  0.34498715  0.82752732  0.99487598    -0.74100
Ni9        Ni  0.39300509  0.86915903  0.98907056     1.25400
Ni10       Ni  0.34235786  0.86803138  0.99022205     1.25400
C11         C  0.36893877  0.81454737  0.99433730     0.88100
C12         C  0.36647857  0.92255331  0.98619926     0.88100
C13         C  0.36768353  0.87171797  0.07363465     0.88100
C14         C  0.36785002  0.86581626  0.90566699     0.88300
O15         O  0.39493716  0.82675812  0.48935058    -0.74000
O16         O  0.38980086  0.90822011  0.48845038    -0.74100
O17         O  0.39304958  0.86824811  0.55202315    -0.74100
O18         O  0.39161819  0.86694372  0.42577999    -0.74200
O19         O  0.34446608  0.86294276  0.42790718    -0.74100
O20         O  0.34569864  0.86678718  0.55406184    -0.74100
O21         O  0.34258401  0.90539553  0.48879957    -0.74100
O22         O  0.34782563  0.82409285  0.49389345    -0.74100
Ni23       Ni  0.39403755  0.86761187  0.48879587     1.25400
Ni24       Ni  0.34347105  0.86464612  0.49116816     1.25400
C25         C  0.37221909  0.81187621  0.49260735     0.88100
C26         C  0.36535301  0.92029409  0.48816180     0.88100
C27         C  0.36954574  0.86820369  0.57380265     0.88100
C28         C  0.36779731  0.86488509  0.40596265     0.88300
O29         O  0.33883241  0.23116484  0.99455615    -0.74000
O30         O  0.33728532  0.14962527  0.98943125    -0.74100
O31         O  0.33557603  0.18882951  0.05532020    -0.74100
O32         O  0.34033113  0.19145078  0.92924906    -0.74200
O33         O  0.38759037  0.19170936  0.93247350    -0.74100
O34         O  0.38274866  0.18646127  0.05863958    -0.74100
O35         O  0.38465011  0.14886492  0.99066355    -0.74100
O36         O  0.38583750  0.22978669  0.00059130    -0.74100
Ni37       Ni  0.33630428  0.19037559  0.99211330     1.25400
Ni38       Ni  0.38687528  0.18924822  0.99575494     1.25400
C39         C  0.36272202  0.24403437  0.99823293     0.88100
C40         C  0.36083411  0.13591591  0.98812843     0.88100
C41         C  0.35832274  0.18681569  0.07785080     0.88100
C42         C  0.36468893  0.19132507  0.90997395     0.88300
O43         O  0.33773480  0.23060385  0.49751268    -0.74000
O44         O  0.33657333  0.14891114  0.49715846    -0.74100
O45         O  0.33968062  0.19036776  0.56004679    -0.74100
O46         O  0.33470822  0.18901495  0.43367475    -0.74200
O47         O  0.38197285  0.18824385  0.42850316    -0.74100
O48         O  0.38696137  0.18947880  0.55442098    -0.74100
O49         O  0.38382328  0.14820553  0.49149328    -0.74100
O50         O  0.38474552  0.22970729  0.49085594    -0.74100
Ni51       Ni  0.33546976  0.18976377  0.49717622     1.25400
Ni52       Ni  0.38602521  0.18891384  0.49114275     1.25400
C53         C  0.36154893  0.24379540  0.49536318     0.88100
C54         C  0.36001567  0.13508603  0.49423994     0.88100
C55         C  0.36419403  0.19043756  0.57798539     0.88100
C56         C  0.35758196  0.18783337  0.41028669     0.88300
O57         O  0.85045971  0.69120341  0.01431422    -0.74000
O58         O  0.93146311  0.69516138  0.00529690    -0.74100
O59         O  0.89337310  0.69615161  0.07228084    -0.74100
O60         O  0.88915481  0.69025882  0.94659749    -0.74200
O61         O  0.88686006  0.73748191  0.94186789    -0.74100
O62         O  0.88949884  0.74327776  0.06806507    -0.74100
O63         O  0.92897505  0.74239678  0.00138169    -0.74100
O64         O  0.84739108  0.73799130  0.00738379    -0.74100
Ni65       Ni  0.89111827  0.69155010  0.00977231     1.25400
Ni66       Ni  0.88806153  0.74201359  0.00465549     1.25400
C67         C  0.83530966  0.71370256  0.01143399     0.88100
C68         C  0.94358497  0.71936277  0.00160188     0.88100
C69         C  0.89239181  0.72064896  0.09084374     0.88100
C70         C  0.88803835  0.71290758  0.92351756     0.88300
O71         O  0.85294304  0.68783338  0.50289902    -0.74000
O72         O  0.93417837  0.68743794  0.50414559    -0.74100
O73         O  0.89282994  0.68520737  0.56700978    -0.74100
O74         O  0.89421464  0.69035277  0.44043976    -0.74200
O75         O  0.89292481  0.73754269  0.44616802    -0.74100
O76         O  0.89387921  0.73234046  0.57199764    -0.74100
O77         O  0.93425165  0.73475526  0.50749732    -0.74100
O78         O  0.85244483  0.73478557  0.51092733    -0.74100
Ni79       Ni  0.89353121  0.68603289  0.50344704     1.25400
Ni80       Ni  0.89337679  0.73653636  0.50928428     1.25400
C81         C  0.83909437  0.71112623  0.50740308     0.88100
C82         C  0.94766227  0.71101100  0.50604724     0.88100
C83         C  0.89323397  0.70797864  0.59052464     0.88100
C84         C  0.89382858  0.71491817  0.42246104     0.88300
O85         O  0.25404414  0.73408663  0.99246274    -0.74000
O86         O  0.17275274  0.73920269  0.98710156    -0.74100
O87         O  0.21111100  0.73557717  0.05248740    -0.74100
O88         O  0.21572227  0.73783106  0.92610262    -0.74200
O89         O  0.21159702  0.69071242  0.92339071    -0.74100
O90         O  0.20987256  0.68827224  0.04943227    -0.74100
O91         O  0.16997909  0.69197496  0.98594779    -0.74100
O92         O  0.25151762  0.68715659  0.98642905    -0.74100
Ni93       Ni  0.21350857  0.73836395  0.98952283     1.25400
Ni94       Ni  0.21063348  0.68785953  0.98620140     1.25400
C95         C  0.26641818  0.70980216  0.99019637     0.88100
C96         C  0.15788131  0.71641052  0.98682270     0.88100
C97         C  0.21020164  0.71148167  0.07177571     0.88100
C98         C  0.21427242  0.71459931  0.90388245     0.88300
O99         O  0.25736658  0.73136326  0.48846073    -0.74000
O100        O  0.17561857  0.73297904  0.49048856    -0.74100
O101        O  0.21677509  0.73156421  0.55164549    -0.74100
O102        O  0.21621045  0.73333407  0.42585141    -0.74200
O103        O  0.21417579  0.68608001  0.42335284    -0.74100
O104        O  0.21707724  0.68424213  0.54986953    -0.74100
O105        O  0.17503709  0.68562301  0.48947673    -0.74100
O106        O  0.25618420  0.68428402  0.48335104    -0.74100
Ni107      Ni  0.21653321  0.73400145  0.48900371     1.25400
Ni108      Ni  0.21560122  0.68337704  0.48639168     1.25400
C109        C  0.27034213  0.70736744  0.48672879     0.88100
C110        C  0.16189087  0.70943324  0.49078025     0.88100
C111        C  0.21723180  0.70773940  0.57161278     0.88100
C112        C  0.21494117  0.71009875  0.40373424     0.88300
O113        O  0.70379185  0.22961657  0.99527504    -0.74000
O114        O  0.70884768  0.14864253  0.00152247    -0.74100
O115        O  0.70379424  0.19129310  0.06160654    -0.74100
O116        O  0.70887307  0.18686577  0.93539060    -0.74200
O117        O  0.75592086  0.19159960  0.93860346    -0.74100
O118        O  0.75103856  0.19263809  0.06497469    -0.74100
O119        O  0.75612678  0.15149328  0.00234389    -0.74100
O120        O  0.75066424  0.23271068  0.00191966    -0.74100
Ni121      Ni  0.70465108  0.18900405  0.99830646     1.25400
Ni122      Ni  0.75513325  0.19223169  0.00200880     1.25400
C123        C  0.72629966  0.24468552  0.99867167     0.88100
C124        C  0.73327627  0.13670795  0.00285023     0.88100
C125        C  0.72662204  0.19253030  0.08415639     0.88100
C126        C  0.73320205  0.18849628  0.91616553     0.88300
O127        O  0.69826543  0.23067343  0.50461255    -0.74000
O128        O  0.70236417  0.14936660  0.50322044    -0.74100
O129        O  0.70333427  0.19039240  0.56675679    -0.74100
O130        O  0.69802742  0.18987897  0.44012964    -0.74200
O131        O  0.74522074  0.19247852  0.43535053    -0.74100
O132        O  0.75052273  0.19250334  0.56075722    -0.74100
O133        O  0.74953902  0.15143425  0.49707275    -0.74100
O134        O  0.74512091  0.23334008  0.49861302    -0.74100
Ni135      Ni  0.69882326  0.18996018  0.50381564     1.25400
Ni136      Ni  0.74926720  0.19249930  0.49777494     1.25400
C137        C  0.72080464  0.24571393  0.50219863     0.88100
C138        C  0.72650184  0.13689788  0.49978914     0.88100
C139        C  0.72789069  0.19187940  0.58452767     0.88100
C140        C  0.72096769  0.19122147  0.41688747     0.88300
O141        O  0.75445576  0.82749754  0.99545862    -0.74000
O142        O  0.75803991  0.90875549  0.99445523    -0.74100
O143        O  0.75899506  0.86863719  0.05812067    -0.74100
O144        O  0.75343417  0.86769218  0.93209301    -0.74200
O145        O  0.70613032  0.86786957  0.93753770    -0.74100
O146        O  0.71184207  0.87281713  0.06351490    -0.74100
O147        O  0.71071987  0.91074912  0.99722919    -0.74100
O148        O  0.70754656  0.82964759  0.00455481    -0.74100
Ni149      Ni  0.75791651  0.86803287  0.99480512     1.25400
Ni150      Ni  0.70736058  0.87029808  0.00086396     1.25400
C151        C  0.73047651  0.81505988  0.00095578     0.88100
C152        C  0.73491218  0.92314284  0.99511173     0.88100
C153        C  0.73627916  0.87140124  0.08150131     0.88100
C154        C  0.72895925  0.86791960  0.91406058     0.88300
O155        O  0.75521663  0.82715015  0.49988220    -0.74000
O156        O  0.75425436  0.90883598  0.50024213    -0.74100
O157        O  0.75318799  0.86791469  0.56242598    -0.74100
O158        O  0.75668893  0.86796238  0.43603144    -0.74200
O159        O  0.70938925  0.86732516  0.43363020    -0.74100
O160        O  0.70585664  0.86739957  0.56027778    -0.74100
O161        O  0.70694892  0.90817337  0.49750313    -0.74100
O162        O  0.70814172  0.82668045  0.49627508    -0.74100
Ni163      Ni  0.75652193  0.86800533  0.49953253     1.25400
Ni164      Ni  0.70591454  0.86739530  0.49679166     1.25400
C165        C  0.73175554  0.81328958  0.49907133     0.88100
C166        C  0.73036040  0.92196241  0.49980277     0.88100
C167        C  0.72901401  0.86728435  0.58216043     0.88100
C168        C  0.73363133  0.86744104  0.41392267     0.88300
N169        N  0.33355120  0.31852477  0.00372186    -0.36200
N170        N  0.39504044  0.31701400  0.99837767    -0.56800
N171        N  0.39599172  0.37881986  0.00242622    -0.36200
N172        N  0.33427386  0.38025350  0.01252124    -0.56800
C173        C  0.33989389  0.29143167  0.01500288     0.27400
C174        C  0.30784723  0.32476600  0.02195680     0.27400
C175        C  0.42411331  0.37307354  0.00554798     0.27400
C176        C  0.39237003  0.40670245  0.01230203     0.27400
C177        C  0.38901144  0.29001846  0.98633372     0.34400
C178        C  0.42214382  0.32187303  0.98551829     0.36000
C179        C  0.30603342  0.37616456  0.00661548     0.36000
C180        C  0.33934642  0.40833397  0.00702649     0.36000
C181        C  0.31845584  0.28074584  0.04178275    -0.21500
C182        C  0.29830836  0.30175828  0.04633255    -0.21500
C183        C  0.43857495  0.39760152  0.01701226    -0.21500
C184        C  0.41872405  0.41887853  0.02029656    -0.21500
C185        C  0.41232601  0.27795604  0.96468314    -0.22600
C186        C  0.43347931  0.29802209  0.96496028    -0.22600
C187        C  0.29324711  0.40195916  0.99698279    -0.22600
C188        C  0.31406607  0.42223966  0.99850128    -0.22600
C189        C  0.36377514  0.27583493  0.99926267    -0.17900
C190        C  0.29196063  0.34979211  0.01383210    -0.17900
C191        C  0.36623168  0.42177929  0.01133555    -0.17900
C192        C  0.43737394  0.34685860  0.99508689    -0.17900
H193        H  0.31744554  0.26004100  0.05679700     0.15000
H194        H  0.27890672  0.30021318  0.06569599     0.15000
H195        H  0.46123147  0.40021156  0.02119285     0.15000
H196        H  0.42354165  0.44091427  0.02709800     0.15000
H197        H  0.41424644  0.25698065  0.95015498     0.13300
H198        H  0.45472625  0.29544576  0.95141670     0.13300
H199        H  0.27137997  0.40654728  0.98958057     0.13300
H200        H  0.31060269  0.44468356  0.99358549     0.13300
H201        H  0.34439566  0.33074773  0.98049515     0.26500
H202        H  0.38067623  0.36529107  0.99007286     0.26500
N203        N  0.33127521  0.31747752  0.50974152    -0.36200
N204        N  0.39271633  0.31771820  0.50486585    -0.56800
N205        N  0.39232447  0.37907450  0.51937934    -0.36200
N206        N  0.33108943  0.37927661  0.52012615    -0.56800
C207        C  0.33728462  0.29171543  0.49148167     0.27400
C208        C  0.30451079  0.32456240  0.49794043     0.27400
C209        C  0.41941255  0.37478314  0.50548194     0.27400
C210        C  0.38669695  0.40710155  0.51499306     0.27400
C211        C  0.38787200  0.28971174  0.51149119     0.36000
C212        C  0.42024021  0.32255402  0.51489246     0.36000
C213        C  0.30361290  0.37321133  0.52956381     0.36000
C214        C  0.33614411  0.40554284  0.53685216     0.36000
C215        C  0.31429922  0.28268648  0.46680999    -0.21500
C216        C  0.29366769  0.30337104  0.47086387    -0.21500
C217        C  0.43115887  0.40048962  0.49248483    -0.21500
C218        C  0.41033527  0.42074865  0.49763698    -0.21500
C219        C  0.41241007  0.27695801  0.52700402    -0.22600
C220        C  0.43300037  0.29756716  0.52805860    -0.22600
C221        C  0.29139507  0.39566129  0.55293725    -0.22600
C222        C  0.31195000  0.41613940  0.55744150    -0.22600
C223        C  0.36230831  0.27570107  0.49947189    -0.17900
C224        C  0.28923509  0.34868483  0.51388891    -0.17900
C225        C  0.36165513  0.42082896  0.53013281    -0.17900
C226        C  0.43430777  0.34874056  0.50833856    -0.17900
H227        H  0.31252305  0.26338227  0.44742375     0.15000
H228        H  0.27310442  0.30281686  0.45529475     0.15000
H229        H  0.45266273  0.40458244  0.48134198     0.15000
H230        H  0.41271614  0.44316127  0.49084052     0.15000
H231        H  0.41565149  0.25520507  0.53682594     0.13300
H232        H  0.45481293  0.29429606  0.53758454     0.13300
H233        H  0.26990686  0.39741402  0.56529989     0.13300
H234        H  0.30929359  0.43659360  0.57356018     0.13300
H235        H  0.34344666  0.32803303  0.53324709     0.26500
H236        H  0.37968499  0.36442441  0.53602222     0.26500
N237        N  0.33973239  0.74010186  0.99900039    -0.36200
N238        N  0.34085656  0.67836782  0.99892917    -0.56800
N239        N  0.40235170  0.68053910  0.00976801    -0.36200
N240        N  0.40123399  0.74212641  0.00509589    -0.56800
C241        C  0.31420387  0.73303747  0.98181537     0.27400
C242        C  0.34616787  0.76656454  0.98452574     0.27400
C243        C  0.39895584  0.65225246  0.00327174     0.27400
C244        C  0.43050794  0.68617056  0.00581355     0.27400
C245        C  0.31249005  0.68273528  0.00393906     0.36000
C246        C  0.34593142  0.65095019  0.00959127     0.36000
C247        C  0.39475818  0.76959897  0.01351227     0.36000
C248        C  0.42798953  0.73815702  0.01932829     0.36000
C249        C  0.30483355  0.75487569  0.95530856    -0.21500
C250        C  0.32491938  0.77594835  0.95696439    -0.21500
C251        C  0.42542012  0.63979246  0.99622214    -0.21500
C252        C  0.44518888  0.66122047  0.99693365    -0.21500
C253        C  0.29961505  0.65789131  0.01815880    -0.22600
C254        C  0.32054395  0.63776081  0.02072863    -0.22600
C255        C  0.41740263  0.78291733  0.03418345    -0.22600
C256        C  0.43864131  0.76306412  0.03709229    -0.22600
C257        C  0.29837912  0.70830234  0.99230413    -0.17900
C258        C  0.36984590  0.78290601  0.99815824    -0.17900
C259        C  0.44348654  0.71276404  0.01398378    -0.17900
C260        C  0.37287105  0.63727267  0.00697617    -0.17900
H261        H  0.28553748  0.75562340  0.93653709     0.15000
H262        H  0.32386987  0.79583418  0.93958999     0.15000
H263        H  0.43031633  0.61749238  0.99193764     0.15000
H264        H  0.46792275  0.65850296  0.99305929     0.15000
H265        H  0.27755950  0.65396998  0.02592724     0.13300
H266        H  0.31701916  0.61589078  0.02980339     0.13300
H267        H  0.41878187  0.80457130  0.04613050     0.13300
H268        H  0.45945072  0.76646418  0.05102422     0.13300
H269        H  0.35035047  0.72905044  0.02334286     0.26500
H270        H  0.38693598  0.69444825  0.02101319     0.26500
N271        N  0.34361456  0.73757932  0.49616398    -0.36200
N272        N  0.34357844  0.67608496  0.50348800    -0.56800
N273        N  0.40439839  0.67729625  0.51579237    -0.36200
N274        N  0.40466617  0.73881461  0.50421711    -0.56800
C275        C  0.31828676  0.73036810  0.47852924     0.27400
C276        C  0.35049452  0.76366433  0.48079769     0.27400
C277        C  0.39995595  0.64914530  0.50969089     0.27400
C278        C  0.43221914  0.68232481  0.50735016     0.27400
C279        C  0.31537472  0.68140178  0.50699022     0.36000
C280        C  0.34774736  0.64964851  0.51944099     0.36000
C281        C  0.39858941  0.76659191  0.51137861     0.36000
C282        C  0.43086895  0.73424332  0.52048429     0.36000
C283        C  0.30942725  0.75173911  0.45064697    -0.21500
C284        C  0.32971624  0.77272291  0.45210559    -0.21500
C285        C  0.42527518  0.63604163  0.49752605    -0.21500
C286        C  0.44551155  0.65706125  0.49512186    -0.21500
C287        C  0.30177123  0.65816373  0.52572689    -0.22600
C288        C  0.32216354  0.63799934  0.53295143    -0.22600
C289        C  0.42094322  0.77960801  0.53314031    -0.22600
C290        C  0.44144781  0.75910819  0.53866397    -0.22600
C291        C  0.30206583  0.70619600  0.49042691    -0.17900
C292        C  0.37392008  0.78009728  0.49514493    -0.17900
C293        C  0.44617647  0.70855849  0.51492534    -0.17900
C294        C  0.37395432  0.63503582  0.51783495    -0.17900
H295        H  0.29028627  0.75229780  0.43134253     0.15000
H296        H  0.32912230  0.79241751  0.43412086     0.15000
H297        H  0.42893722  0.61366549  0.49129331     0.15000
H298        H  0.46766944  0.65385865  0.48650461     0.15000
H299        H  0.27955953  0.65544061  0.53361388     0.13300
H300        H  0.31839748  0.61709124  0.54635328     0.13300
H301        H  0.42256068  0.80145494  0.54409817     0.13300
H302        H  0.46194374  0.76219904  0.55379446     0.13300
H303        H  0.35374679  0.72701908  0.52167918     0.26500
H304        H  0.39004305  0.69159485  0.53008082     0.26500
N305        N  0.75542755  0.31842164  0.00080668    -0.36200
N306        N  0.75577156  0.38001399  0.00571111    -0.56800
N307        N  0.69398878  0.37990085  0.01478731    -0.36200
N308        N  0.69370206  0.31810159  0.00483264    -0.56800
C309        C  0.78125958  0.32489082  0.98338885     0.27400
C310        C  0.74850785  0.29219823  0.98567165     0.27400
C311        C  0.69854982  0.40823848  0.01194772     0.27400
C312        C  0.66586789  0.37532940  0.00853352     0.27400
C313        C  0.78404754  0.37487573  0.00854809     0.36000
C314        C  0.75162975  0.40755239  0.01744928     0.36000
C315        C  0.69888973  0.29031724  0.01238111     0.36000
C316        C  0.66632874  0.32284493  0.01661677     0.36000
C317        C  0.79037573  0.30287902  0.95594756    -0.21500
C318        C  0.76976094  0.28225819  0.95746017    -0.21500
C319        C  0.67268635  0.42184452  0.00596379    -0.21500
C320        C  0.65230475  0.40112494  0.00257390    -0.21500
C321        C  0.79775091  0.39925287  0.02290453    -0.22600
C322        C  0.77752728  0.41993741  0.02739042    -0.22600
C323        C  0.67467664  0.27758817  0.02991545    -0.22600
C324        C  0.65396846  0.29810870  0.03187023    -0.22600
C325        C  0.79747397  0.34929895  0.99414673    -0.17900
C326        C  0.72440830  0.27640928  0.99931567    -0.17900
C327        C  0.65180115  0.34875103  0.01101339    -0.17900
C328        C  0.72522931  0.42221025  0.01581983    -0.17900
H329        H  0.80975032  0.30178029  0.93641080     0.15000
H330        H  0.77030575  0.26232355  0.93940648     0.15000
H331        H  0.66864906  0.44441790  0.00413707     0.15000
H332        H  0.62990640  0.40484603  0.99738708     0.15000
H333        H  0.81998724  0.40266135  0.02902326     0.13300
H334        H  0.78204651  0.44168336  0.03639527     0.13300
H335        H  0.67168322  0.25587942  0.04006959     0.13300
H336        H  0.63230478  0.29521546  0.04338235     0.13300
H337        H  0.74475768  0.32962977  0.02579653     0.26500
H338        H  0.70882902  0.36483003  0.02396000     0.26500
N339        N  0.75162029  0.31782008  0.48987944    -0.36200
N340        N  0.69016626  0.32143449  0.49653350    -0.56800
N341        N  0.69379460  0.38300105  0.48100448    -0.36200
N342        N  0.75541411  0.37906195  0.47939936    -0.56800
C343        C  0.74449041  0.29310548  0.50963581     0.27400
C344        C  0.77876844  0.32371151  0.50122089     0.27400
C345        C  0.66545320  0.38081411  0.48829836     0.27400
C346        C  0.70050609  0.41105003  0.48173513     0.27400
C347        C  0.69282966  0.29263347  0.49647330     0.36000
C348        C  0.66209397  0.32744130  0.49278149     0.36000
C349        C  0.78223818  0.37135676  0.46854648     0.36000
C350        C  0.75209238  0.40600001  0.46547413     0.36000
C351        C  0.76694673  0.28377819  0.53498309    -0.21500
C352        C  0.78856756  0.30308904  0.52970535    -0.21500
C353        C  0.65390323  0.40795617  0.49148190    -0.21500
C354        C  0.67602377  0.42689926  0.48861692    -0.21500
C355        C  0.66601774  0.28049578  0.49332150    -0.22600
C356        C  0.64682899  0.30228972  0.49208047    -0.22600
C357        C  0.79572495  0.39334789  0.44628942    -0.22600
C358        C  0.77675978  0.41552263  0.44524567    -0.22600
C359        C  0.71904400  0.27780984  0.50251733    -0.17900
C360        C  0.79524347  0.34628137  0.48402206    -0.17900
C361        C  0.72784491  0.42280073  0.47404292    -0.17900
C362        C  0.64963549  0.35509921  0.49107590    -0.17900
H363        H  0.76766081  0.26507737  0.55548379     0.15000
H364        H  0.80908172  0.30202874  0.54535098     0.15000
H365        H  0.63180436  0.41380013  0.49557923     0.15000
H366        H  0.67404033  0.44978544  0.49027492     0.15000
H367        H  0.65974306  0.25851802  0.49289245     0.13300
H368        H  0.62406249  0.29946276  0.49102888     0.13300
H369        H  0.81708157  0.39377275  0.43273468     0.13300
H370        H  0.78059575  0.43625036  0.43116390     0.13300
H371        H  0.73996932  0.32808211  0.46569235     0.26500
H372        H  0.70730372  0.36637656  0.47306020     0.26500
N373        N  0.76089659  0.74164551  0.00558640    -0.36200
N374        N  0.76192967  0.68012757  0.01127960    -0.56800
N375        N  0.70013087  0.67965462  0.00630845    -0.36200
N376        N  0.69919491  0.74147757  0.00533597    -0.56800
C377        C  0.78709598  0.73628191  0.02161968     0.27400
C378        C  0.75391373  0.76854544  0.01770829     0.27400
C379        C  0.70504315  0.65200480  0.01545848     0.27400
C380        C  0.67213458  0.68467572  0.01378968     0.27400
C381        C  0.78974193  0.68533758  0.00247499     0.36000
C382        C  0.75748612  0.65223514  0.00258136     0.36000
C383        C  0.70427525  0.76854097  0.99299354     0.36000
C384        C  0.67201578  0.73579860  0.99463565     0.36000
C385        C  0.79640063  0.75969690  0.04549040    -0.21500
C386        C  0.77548927  0.78004438  0.04299740    -0.21500
C387        C  0.67959763  0.63918607  0.02775331    -0.21500
C388        C  0.65901124  0.65989884  0.02755642    -0.21500
C389        C  0.80279763  0.66057835  0.98735502    -0.22600
C390        C  0.78267391  0.63960840  0.98864247    -0.22600
C391        C  0.68025548  0.77985596  0.97350427    -0.22600
C392        C  0.65968488  0.75921696  0.97526398    -0.22600
C393        C  0.80340201  0.71162177  0.01182546    -0.17900
C394        C  0.72950854  0.78336651  0.00337823    -0.17900
C395        C  0.65773095  0.71032055  0.00465706    -0.17900
C396        C  0.73146645  0.63774901  0.00993331    -0.17900
H397        H  0.81611923  0.76196182  0.06316562     0.15000
H398        H  0.77614404  0.80087635  0.05832477     0.15000
H399        H  0.67590081  0.61709417  0.03540563     0.15000
H400        H  0.63670458  0.65676507  0.03513270     0.15000
H401        H  0.82441073  0.65730996  0.97612802     0.13300
H402        H  0.78652928  0.61762419  0.97996747     0.13300
H403        H  0.67750282  0.80065924  0.95934367     0.13300
H404        H  0.63818389  0.76110959  0.96331537     0.13300
H405        H  0.75000208  0.72904742  0.98293942     0.26500
H406        H  0.71440231  0.69343521  0.99124197     0.26500
N407        N  0.76441511  0.74057194  0.50908087    -0.36200
N408        N  0.70236751  0.73873458  0.50791865    -0.56800
N409        N  0.70436968  0.67736068  0.51034133    -0.36200
N410        N  0.76610618  0.67905217  0.50703174    -0.56800
C411        C  0.75744157  0.76626789  0.49241889     0.27400
C412        C  0.79148841  0.73471990  0.49603610     0.27400
C413        C  0.67641416  0.68164985  0.50317169     0.27400
C414        C  0.71035591  0.65021895  0.49853019     0.27400
C415        C  0.70687199  0.76672808  0.51569324     0.36000
C416        C  0.67528035  0.73315372  0.52070262     0.36000
C417        C  0.79301517  0.68480235  0.51931318     0.36000
C418        C  0.76147478  0.65140324  0.51623712     0.36000
C419        C  0.78014521  0.77639684  0.46744531    -0.21500
C420        C  0.80163553  0.75662227  0.46998731    -0.21500
C421        C  0.66437272  0.65680038  0.48703047    -0.21500
C422        C  0.68589594  0.63705298  0.48361507    -0.21500
C423        C  0.68251098  0.77878430  0.53434500    -0.22600
C424        C  0.66243893  0.75766576  0.53671620    -0.22600
C425        C  0.80513910  0.66073688  0.53764001    -0.22600
C426        C  0.78530931  0.63945188  0.53478820    -0.22600
C427        C  0.73194087  0.78140479  0.50236372    -0.17900
C428        C  0.80722619  0.71043749  0.50867235    -0.17900
C429        C  0.73664643  0.63645368  0.50508771    -0.17900
C430        C  0.66141717  0.70679896  0.51424273    -0.17900
H431        H  0.78119889  0.79582091  0.44868561     0.15000
H432        H  0.82212500  0.75804151  0.45358335     0.15000
H433        H  0.64233741  0.65299558  0.47917235     0.15000
H434        H  0.68357756  0.61522880  0.47271394     0.15000
H435        H  0.67916138  0.80038445  0.54557013     0.13300
H436        H  0.64084391  0.76017985  0.54878596     0.13300
H437        H  0.82604943  0.65836550  0.55150685     0.13300
H438        H  0.78803027  0.61771032  0.54532864     0.13300
H439        H  0.75253568  0.72906998  0.53206174     0.26500
H440        H  0.71770994  0.69111138  0.52735475     0.26500
O441        O  0.24445542  0.36984767  0.01744977    -0.74000
O442        O  0.16320595  0.36308180  0.01523590    -0.74100
O443        O  0.20326547  0.36416073  0.07857060    -0.74100
O444        O  0.20454077  0.36943449  0.95340596    -0.74200
O445        O  0.20765107  0.32233323  0.94761359    -0.74100
O446        O  0.20796253  0.31725030  0.07441300    -0.74100
O447        O  0.16701916  0.31596245  0.01099728    -0.74100
O448        O  0.24833938  0.32311908  0.00997312    -0.74100
Ni449      Ni  0.20369785  0.36823624  0.01630582     1.25400
Ni450      Ni  0.20788010  0.31793068  0.01062908     1.25400
C451        C  0.26002343  0.34760616  0.01389377     0.88100
C452        C  0.15165318  0.33845200  0.01297216     0.88100
C453        C  0.20575321  0.34019760  0.09749543     0.88100
C454        C  0.20587794  0.34687383  0.92971554     0.88300
O455        O  0.24362886  0.37175852  0.51006004    -0.74000
O456        O  0.16202225  0.37136550  0.51148455    -0.74100
O457        O  0.20277026  0.37466892  0.57423565    -0.74100
O458        O  0.20345036  0.36862698  0.44776271    -0.74200
O459        O  0.20422946  0.32141132  0.45280074    -0.74100
O460        O  0.20209270  0.32748332  0.57881298    -0.74100
O461        O  0.16224629  0.32426242  0.51519319    -0.74100
O462        O  0.24394729  0.32475336  0.51677425    -0.74100
Ni463      Ni  0.20288820  0.37328546  0.51073812     1.25400
Ni464      Ni  0.20310294  0.32281564  0.51602183     1.25400
C465        C  0.25737309  0.34836936  0.51348408     0.88100
C466        C  0.14849444  0.34778208  0.51349091     0.88100
C467        C  0.20245164  0.35202001  0.59742455     0.88100
C468        C  0.20447831  0.34398510  0.42950997     0.88300
O469        O  0.84174262  0.32345799  0.99246011    -0.74000
O470        O  0.92316382  0.31937589  0.98792490    -0.74100
O471        O  0.88332132  0.32412732  0.05273960    -0.74100
O472        O  0.88146293  0.31870498  0.92637287    -0.74200
O473        O  0.88519477  0.36571551  0.92207289    -0.74100
O474        O  0.88407551  0.37132888  0.04832130    -0.74100
O475        O  0.92555454  0.36656704  0.98541175    -0.74100
O476        O  0.84404858  0.37023594  0.98466859    -0.74100
Ni477      Ni  0.88236785  0.31973095  0.98986398     1.25400
Ni478      Ni  0.88482548  0.37012981  0.98492239     1.25400
C479        C  0.82930192  0.34763038  0.98992922     0.88100
C480        C  0.93786935  0.34228853  0.98679143     0.88100
C481        C  0.88336034  0.34865585  0.07141405     0.88100
C482        C  0.88333523  0.34135818  0.90325456     0.88300
O483        O  0.83944333  0.32036725  0.48286970    -0.74000
O484        O  0.92105026  0.31753683  0.48604874    -0.74100
O485        O  0.87893813  0.31551260  0.54736326    -0.74100
O486        O  0.88139815  0.32180348  0.42179794    -0.74200
O487        O  0.88298500  0.36898531  0.42767371    -0.74100
O488        O  0.87993766  0.36274894  0.55388678    -0.74100
O489        O  0.92214771  0.36476792  0.49323094    -0.74100
O490        O  0.84122103  0.36743757  0.48969931    -0.74100
Ni491      Ni  0.88019027  0.31710777  0.48427389     1.25400
Ni492      Ni  0.88168048  0.36765854  0.49120892     1.25400
C493        C  0.82686005  0.34454261  0.48553834     0.88100
C494        C  0.93487998  0.34076668  0.49122361     0.88100
C495        C  0.87921639  0.33803925  0.57130380     0.88100
C496        C  0.88172669  0.34631888  0.40393270     0.88300
C497        C  0.88282780  0.33933111  0.85427002    -0.11600
C498        C  0.89542239  0.36018530  0.82685111     0.03900
C499        C  0.89365443  0.35766556  0.78097525    -0.12100
C500        C  0.87942822  0.33483549  0.76132535     0.18700
C501        C  0.86709995  0.31387951  0.78819781    -0.09200
C502        C  0.86895390  0.31615946  0.83422206    -0.02100
H503        H  0.90338810  0.37373980  0.76034062     0.05300
C504        C  0.87751278  0.33382730  0.71268965     0.20700
H505        H  0.85894719  0.30002872  0.85440221     0.10400
C506        C  0.89553666  0.31564326  0.68836515    -0.15500
C507        C  0.89619160  0.31641036  0.64215113     0.03400
C508        C  0.87854425  0.33564553  0.61974671    -0.10800
C509        C  0.86033811  0.35355932  0.64418405    -0.00800
C510        C  0.85962215  0.35267110  0.69025195    -0.06000
H511        H  0.90974331  0.30145563  0.70543974     0.06500
H512        H  0.84657582  0.36830275  0.62734625     0.09800
Br513      Br  0.84661185  0.28251192  0.76341841    -0.05700
Br514      Br  0.91631168  0.39220259  0.84894863    -0.02600
Br515      Br  0.92338317  0.29271579  0.61157393     0.00200
Br516      Br  0.83385154  0.37756483  0.72126220    -0.04200
C517        C  0.88043300  0.34832004  0.35526574    -0.11600
C518        C  0.86478082  0.32858827  0.32978829     0.03900
C519        C  0.86502502  0.33047510  0.28381370    -0.12100
C520        C  0.88072678  0.35159164  0.26228351     0.18700
C521        C  0.89549214  0.37190061  0.28747774    -0.09200
C522        C  0.89517156  0.37021757  0.33361369    -0.02100
H523        H  0.85314638  0.31513104  0.26459856     0.05300
C524        C  0.88208281  0.35134443  0.21352219     0.20700
H525        H  0.90713522  0.38562221  0.35254904     0.10400
C526        C  0.86843608  0.37276412  0.18992542    -0.15500
C527        C  0.86869138  0.37254112  0.14371685     0.03400
C528        C  0.88283070  0.35045452  0.12027663    -0.10800
C529        C  0.89631772  0.32895586  0.14422396    -0.00800
C530        C  0.89608762  0.32929908  0.19034759    -0.06000
H531        H  0.85717742  0.38951103  0.20760396     0.06500
H532        H  0.90733625  0.31186881  0.12699219     0.09800
Br533      Br  0.91748101  0.40137818  0.26020667    -0.05700
Br534      Br  0.84162150  0.29920795  0.35526078    -0.02600
Br535      Br  0.84764316  0.40192943  0.11526654     0.00200
Br536      Br  0.91573569  0.29953047  0.22038717    -0.04200
C537        C  0.11664489  0.34729009  0.51396946    -0.11600
C538        C  0.09966614  0.37171249  0.50627255     0.03900
C539        C  0.06997612  0.36938680  0.50538209    -0.12100
C540        C  0.05645328  0.34332198  0.51242631     0.18700
C541        C  0.07292492  0.31927168  0.52164312    -0.09200
C542        C  0.10263062  0.32130921  0.52215823    -0.02100
H543        H  0.05728711  0.38803379  0.49855814     0.05300
C544        C  0.02520320  0.34148536  0.50821986     0.20700
H545        H  0.11476565  0.30232729  0.52901860     0.10400
C546        C  0.01368080  0.33122813  0.46863761    -0.15500
C547        C  0.98420941  0.33037508  0.46272024     0.03400
C548        C  0.96589208  0.34009601  0.49661147    -0.10800
C549        C  0.97739031  0.35018851  0.53628444    -0.00800
C550        C  0.00682082  0.35071143  0.54241386    -0.06000
H551        H  0.02769753  0.32425327  0.44206230     0.06500
H552        H  0.96339405  0.35752222  0.56267726     0.09800
Br553      Br  0.05548407  0.28338460  0.53440646    -0.05700
Br554      Br  0.11475296  0.40898714  0.49566885    -0.02600
Br555      Br  0.96990351  0.31749919  0.40703140     0.00200
Br556      Br  0.02101863  0.36365749  0.59812066    -0.04200
C557        C  0.20554985  0.34918740  0.88108580    -0.11600
C558        C  0.19005242  0.37066565  0.85947011     0.03900
C559        C  0.19006467  0.37164906  0.81334795    -0.12100
C560        C  0.20515656  0.35153099  0.78809598     0.18700
C561        C  0.22114335  0.33055503  0.80948825    -0.09200
C562        C  0.22105722  0.32938610  0.85556640    -0.02100
H563        H  0.17769775  0.38780948  0.79702454     0.05300
C564        C  0.20341521  0.35237790  0.73949543     0.20700
H565        H  0.23341200  0.31306696  0.87152220     0.10400
C566        C  0.21707017  0.37422986  0.71644832    -0.15500
C567        C  0.21636712  0.37524123  0.67029677     0.03400
C568        C  0.20219676  0.35365394  0.64634746    -0.10800
C569        C  0.18787047  0.33226975  0.66989277    -0.00800
C570        C  0.18794854  0.33182088  0.71599030    -0.06000
H571        H  0.22856599  0.39043460  0.73449268     0.06500
H572        H  0.17620268  0.31596027  0.65236486     0.09800
Br573      Br  0.24385264  0.30342895  0.77717317    -0.05700
Br574      Br  0.16677535  0.39806004  0.89042367    -0.02600
Br575      Br  0.23613129  0.40607982  0.64276940     0.00200
Br576      Br  0.16570124  0.30346136  0.74561531    -0.04200
C577        C  0.20687459  0.33947020  0.14653619    -0.11600
C578        C  0.19864524  0.36314729  0.17311619     0.03900
C579        C  0.20151325  0.36213486  0.21880707    -0.12100
C580        C  0.21242684  0.33810920  0.23945756     0.18700
C581        C  0.22034701  0.31434059  0.21354271    -0.09200
C582        C  0.21757423  0.31517006  0.16752586    -0.02100
H583        H  0.19466128  0.38020203  0.23865561     0.05300
C584        C  0.21294426  0.33792622  0.28829246     0.20700
H585        H  0.22423348  0.29686048  0.14811937     0.10400
C586        C  0.19462011  0.31949628  0.31096272    -0.15500
C587        C  0.19157016  0.32108694  0.35686898     0.03400
C588        C  0.20688068  0.34162560  0.38097354    -0.10800
C589        C  0.22536891  0.35999430  0.35829554    -0.00800
C590        C  0.22862777  0.35818205  0.31238601    -0.06000
H591        H  0.18187144  0.30441113  0.29265670     0.06500
H592        H  0.23757193  0.37562454  0.37641938     0.09800
Br593      Br  0.23580624  0.28070081  0.23940172    -0.05700
Br594      Br  0.18220120  0.39754193  0.15089242    -0.02600
Br595      Br  0.16437440  0.29628410  0.38422854     0.00200
Br596      Br  0.25503019  0.38350365  0.28416065    -0.04200
C597        C  0.12018035  0.33611633  0.01162675    -0.11600
C598        C  0.10242412  0.35499674  0.03573138     0.03900
C599        C  0.07294159  0.35400174  0.03059106    -0.12100
C600        C  0.06039429  0.33403597  0.00240874     0.18700
C601        C  0.07785632  0.31426991  0.97971409    -0.09200
C602        C  0.10749844  0.31541335  0.98445933    -0.02100
H603        H  0.05963808  0.36888663  0.04888323     0.05300
C604        C  0.02914853  0.33503690  0.99657082     0.20700
H605        H  0.12070137  0.30060180  0.96586388     0.10400
C606        C  0.01728454  0.35772017  0.97333254    -0.15500
C607        C  0.98775983  0.36068792  0.96956435     0.03400
C608        C  0.96939694  0.34032222  0.98879261    -0.10800
C609        C  0.98148334  0.31756231  0.01189389    -0.00800
C610        C  0.01095486  0.31507984  0.01649053    -0.06000
H611        H  0.03113464  0.37343467  0.95845897     0.06500
H612        H  0.96789144  0.30205953  0.02782051     0.09800
Br613      Br  0.06222993  0.28615403  0.94073622    -0.05700
Br614      Br  0.11690881  0.38150598  0.07827477    -0.02600
Br615      Br  0.97430507  0.39274509  0.93707883     0.00200
Br616      Br  0.02525102  0.28525813  0.05284227    -0.04200
C617        C  0.73166027  0.45421841  0.47737712    -0.11600
C618        C  0.74552246  0.46648386  0.51390372     0.03900
C619        C  0.74780566  0.49603457  0.51773386    -0.12100
C620        C  0.73576766  0.51392122  0.48622426     0.18700
C621        C  0.72206689  0.50169103  0.44950353    -0.09200
C622        C  0.72039094  0.47206308  0.44508620    -0.02100
H623        H  0.75844096  0.50514665  0.54602292     0.05300
C624        C  0.73712394  0.54519757  0.49268419     0.20700
H625        H  0.70952200  0.46289105  0.41707520     0.10400
C626        C  0.75201478  0.56182784  0.46187942    -0.15500
C627        C  0.75247936  0.59148376  0.46579477     0.03400
C628        C  0.73798843  0.60496455  0.50116668    -0.10800
C629        C  0.72384719  0.58835098  0.53268511    -0.00800
C630        C  0.72336543  0.55872187  0.52880161    -0.06000
H631        H  0.76295364  0.55168894  0.43429671     0.06500
H632        H  0.71277147  0.59856339  0.56007544     0.09800
Br633      Br  0.70359105  0.52452918  0.40619937    -0.05700
Br634      Br  0.76020821  0.44382983  0.56082358    -0.02600
Br635      Br  0.77217321  0.61271538  0.42112741     0.00200
Br636      Br  0.70250487  0.53794530  0.57269392    -0.04200
C637        C  0.72574611  0.45401832  0.01618942    -0.11600
C638        C  0.71750884  0.46979344  0.97908689     0.03900
C639        C  0.71803212  0.49943493  0.98069338    -0.12100
C640        C  0.73055365  0.51413964  0.01603078     0.18700
C641        C  0.74024226  0.49816503  0.05234004    -0.09200
C642        C  0.73598441  0.46872215  0.05325273    -0.02100
H643        H  0.70936101  0.51099937  0.95323510     0.05300
C644        C  0.73240822  0.54585655  0.01446815     0.20700
H645        H  0.74261785  0.45693438  0.08191927     0.10400
C646        C  0.72478317  0.56204566  0.05203103    -0.15500
C647        C  0.72617942  0.59170817  0.05183427     0.03400
C648        C  0.73188046  0.60608057  0.01212109    -0.10800
C649        C  0.73841153  0.59011793  0.97405287    -0.00800
C650        C  0.74031461  0.56047553  0.97546691    -0.06000
H651        H  0.71787060  0.55166467  0.08200323     0.06500
H652        H  0.74332009  0.60090909  0.94345159     0.09800
Br653      Br  0.76228924  0.51425977  0.09933781    -0.05700
Br654      Br  0.70682234  0.45219080  0.92429916    -0.02600
Br655      Br  0.72084769  0.61157620  0.10693320     0.00200
Br656      Br  0.75626710  0.54188604  0.92408705    -0.04200
C657        C  0.47791801  0.70889521  0.51736181    -0.11600
C658        C  0.49458632  0.72648308  0.48985580     0.03900
C659        C  0.52419017  0.72583065  0.49260247    -0.12100
C660        C  0.53805735  0.70576276  0.51882063     0.18700
C661        C  0.52143009  0.68739671  0.54516905    -0.09200
C662        C  0.49178103  0.68999049  0.54570560    -0.02100
H663        H  0.53653505  0.74029251  0.47244416     0.05300
C664        C  0.56969449  0.70440424  0.51754002     0.20700
H665        H  0.47936485  0.67602014  0.56661355     0.10400
C666        C  0.58497587  0.70606190  0.55708929    -0.15500
C667        C  0.61474878  0.70599591  0.55674514     0.03400
C668        C  0.62980104  0.70582603  0.51628651    -0.10800
C669        C  0.61465388  0.70426039  0.47681665    -0.00800
C670        C  0.58498201  0.70281829  0.47711816    -0.06000
H671        H  0.57372291  0.70748582  0.58841738     0.06500
H672        H  0.62608589  0.70351176  0.44557360     0.09800
Br673      Br  0.53758282  0.65642458  0.57726321    -0.05700
Br674      Br  0.47853018  0.74952667  0.44443800    -0.02600
Br675      Br  0.63398023  0.70573960  0.61218928     0.00200
Br676      Br  0.56678923  0.69702866  0.42132967    -0.04200
C677        C  0.47500204  0.71423768  0.01547949    -0.11600
C678        C  0.49029877  0.70252855  0.05058241     0.03900
C679        C  0.52002905  0.70227698  0.04900285    -0.12100
C680        C  0.53487205  0.71445191  0.01340590     0.18700
C681        C  0.51951804  0.72742579  0.97938810    -0.09200
C682        C  0.48980996  0.72700465  0.98043495    -0.02100
H683        H  0.53162895  0.69260157  0.07564679     0.05300
C684        C  0.56630370  0.71320650  0.01196243     0.20700
H685        H  0.47816926  0.73656155  0.95372447     0.10400
C686        C  0.57993653  0.69754499  0.97819570    -0.15500
C687        C  0.60960479  0.69647593  0.97513755     0.03400
C688        C  0.62612670  0.71083279  0.00668072    -0.10800
C689        C  0.61250050  0.72634263  0.04061185    -0.00800
C690        C  0.58282871  0.72766625  0.04339651    -0.06000
H691        H  0.56740458  0.68638441  0.95382234     0.06500
H692        H  0.62505243  0.73763303  0.06481692     0.09800
Br693      Br  0.53819432  0.74687133  0.93177372    -0.05700
Br694      Br  0.47135062  0.68739326  0.10159838    -0.02600
Br695      Br  0.62664529  0.67605585  0.92654616     0.00200
Br696      Br  0.56584784  0.75050115  0.08941139    -0.04200
C697        C  0.46587665  0.34908665  0.50402042    -0.11600
C698        C  0.47942536  0.35485393  0.46339331     0.03900
C699        C  0.50899119  0.35769222  0.46126064    -0.12100
C700        C  0.52595592  0.35201536  0.49808927     0.18700
C701        C  0.51225069  0.34448758  0.53824304    -0.09200
C702        C  0.48254772  0.34422915  0.54121385    -0.02100
H703        H  0.51875239  0.36405372  0.43037200     0.05300
C704        C  0.55758254  0.35437612  0.49413039     0.20700
H705        H  0.47235351  0.33942378  0.57252004     0.10400
C706        C  0.57270603  0.36904627  0.52695257    -0.15500
C707        C  0.60242758  0.36882436  0.52743238     0.03400
C708        C  0.61783726  0.35699897  0.49150531    -0.10800
C709        C  0.60270480  0.34484540  0.45642778    -0.00800
C710        C  0.57312000  0.34195775  0.45860723    -0.06000
H711        H  0.56136359  0.37957985  0.55373751     0.06500
H712        H  0.61424623  0.33539624  0.42883210     0.09800
Br713      Br  0.53245896  0.33224669  0.58947406    -0.05700
Br714      Br  0.45841271  0.35853555  0.40978959    -0.02600
Br715      Br  0.62060736  0.38288785  0.57963760     0.00200
Br716      Br  0.55609714  0.31769789  0.41499438    -0.04200
C717        C  0.36172845  0.45254119  0.53531535    -0.11600
C718        C  0.38161653  0.46687718  0.56213184     0.03900
C719        C  0.38350351  0.49659377  0.56111091    -0.12100
C720        C  0.36504128  0.51268022  0.53515341     0.18700
C721        C  0.34394135  0.49847229  0.51076053    -0.09200
C722        C  0.34272903  0.46876043  0.51046716    -0.02100
H723        H  0.39967604  0.50718423  0.58033122     0.05300
C724        C  0.36882755  0.54399837  0.53205975     0.20700
H725        H  0.32711360  0.45822210  0.49009961     0.10400
C726        C  0.37410665  0.55605139  0.49049228    -0.15500
C727        C  0.37579346  0.58550500  0.48539551     0.03400
C728        C  0.37378105  0.60353846  0.52259338    -0.10800
C729        C  0.36961681  0.59153592  0.56447293    -0.00800
C730        C  0.36663698  0.56207029  0.56935303    -0.06000
H731        H  0.37598083  0.54246895  0.46156092     0.06500
H732        H  0.36750727  0.60526816  0.59319918     0.09800
Br733      Br  0.31583812  0.51869642  0.47797781    -0.05700
Br734      Br  0.40659142  0.44701396  0.60096334    -0.02600
Br735      Br  0.37917043  0.60023049  0.42670629     0.00200
Br736      Br  0.35721611  0.54786791  0.62687760    -0.04200
C737        C  0.46892403  0.34542917  0.99559794    -0.11600
C738        C  0.48317996  0.33274678  0.03097382     0.03900
C739        C  0.51285992  0.33337771  0.03237706    -0.12100
C740        C  0.52878410  0.34716592  0.99946229     0.18700
C741        C  0.51445745  0.35974070  0.96389198    -0.09200
C742        C  0.48476703  0.35861687  0.96208157    -0.02100
H743        H  0.52357832  0.32345782  0.05969449     0.05300
C744        C  0.56022349  0.34793889  0.00278395     0.20700
H745        H  0.47390226  0.36875126  0.93509746     0.10400
C746        C  0.57687515  0.33474158  0.96980388    -0.15500
C747        C  0.60655901  0.33488064  0.97192984     0.03400
C748        C  0.62016739  0.34795382  0.00804512    -0.10800
C749        C  0.60350555  0.36072447  0.04142893    -0.00800
C750        C  0.57382204  0.36104106  0.03887784    -0.06000
H751        H  0.56670246  0.32437815  0.94212529     0.06500
H752        H  0.61371013  0.37087201  0.06926283     0.09800
Br753      Br  0.53418382  0.38022007  0.91843786    -0.05700
Br754      Br  0.46291266  0.31570727  0.07928205    -0.02600
Br755      Br  0.62748098  0.31764543  0.92396851     0.00200
Br756      Br  0.55298935  0.38078341  0.08453641    -0.04200
C757        C  0.36728508  0.45349726  0.01286956    -0.11600
C758        C  0.37611773  0.46860127  0.05068415     0.03900
C759        C  0.37861712  0.49821132  0.04939062    -0.12100
C760        C  0.36946144  0.51372333  0.01267303     0.18700
C761        C  0.35909164  0.49845076  0.97570948    -0.09200
C762        C  0.35951128  0.46876936  0.97538970    -0.02100
H763        H  0.38749245  0.50913231  0.07759096     0.05300
C764        C  0.37156795  0.54543947  0.01298758     0.20700
H765        H  0.35251987  0.45743955  0.94620375     0.10400
C766        C  0.38265467  0.55925736  0.97557340    -0.15500
C767        C  0.38214178  0.58884333  0.97225844     0.03400
C768        C  0.37381102  0.60557802  0.00898160    -0.10800
C769        C  0.36529507  0.59193137  0.04794393    -0.00800
C770        C  0.36264814  0.56233735  0.04953956    -0.06000
H771        H  0.39076822  0.54695359  0.94783444     0.06500
H772        H  0.35883774  0.60455159  0.07641586     0.09800
Br773      Br  0.34180782  0.51626077  0.92583851    -0.05700
Br774      Br  0.38466608  0.44992001  0.10508737    -0.02600
Br775      Br  0.39146150  0.60506561  0.91596244     0.00200
Br776      Br  0.34382332  0.54716838  0.10079998    -0.04200
C777        C  0.72730308  0.86878696  0.86547852    -0.11600
C778        C  0.74450352  0.88762648  0.84094427     0.03900
C779        C  0.74375888  0.88714172  0.79484673    -0.12100
C780        C  0.72584027  0.86830244  0.77254491     0.18700
C781        C  0.70812303  0.84995098  0.79682370    -0.09200
C782        C  0.70878749  0.85040701  0.84306851    -0.02100
H783        H  0.75711333  0.90161405  0.77627934     0.05300
C784        C  0.72615668  0.86792841  0.72385897     0.20700
H785        H  0.69535281  0.83593549  0.86149021     0.10400
C786        C  0.74617219  0.85097306  0.70140270    -0.15500
C787        C  0.74710508  0.85007274  0.65526096     0.03400
C788        C  0.72793193  0.86668996  0.63086338    -0.10800
C789        C  0.70765134  0.88336632  0.65354231    -0.00800
C790        C  0.70673027  0.88413807  0.69971914    -0.06000
H791        H  0.76089974  0.83813120  0.71990400     0.06500
H792        H  0.69278606  0.89620254  0.63530767     0.09800
Br793      Br  0.68328374  0.82367615  0.76773680    -0.05700
Br794      Br  0.76807093  0.91567379  0.86876963    -0.02600
Br795      Br  0.77360278  0.82421571  0.62761830     0.00200
Br796      Br  0.67880543  0.90767656  0.72868422    -0.04200
C797        C  0.73808693  0.87236886  0.12998740    -0.11600
C798        C  0.72492123  0.89418755  0.15500517     0.03900
C799        C  0.72534909  0.89329595  0.20120502    -0.12100
C800        C  0.73857555  0.87074518  0.22298771     0.18700
C801        C  0.75207212  0.84919469  0.19792862    -0.09200
C802        C  0.75204753  0.85031143  0.15178501    -0.02100
H803        H  0.71514313  0.91010568  0.22022559     0.05300
C804        C  0.73772839  0.86979736  0.27181688     0.20700
H805        H  0.76217349  0.83340620  0.13285068     0.10400
C806        C  0.71769774  0.85242262  0.29301739    -0.15500
C807        C  0.71628560  0.85102107  0.33916736     0.03400
C808        C  0.73504265  0.86744389  0.36500157    -0.10800
C809        C  0.75544590  0.88441348  0.34355544    -0.00800
C810        C  0.75681305  0.88574389  0.29738883    -0.06000
H811        H  0.70326348  0.83969816  0.27351104     0.06500
H812        H  0.77013624  0.89701433  0.36277747     0.09800
Br813      Br  0.77035533  0.81761942  0.22536616    -0.05700
Br814      Br  0.70709630  0.92609420  0.12748412    -0.02600
Br815      Br  0.68974456  0.82475719  0.36482666     0.00200
Br816      Br  0.78528633  0.90925325  0.27043214    -0.04200
C817        C  0.72737903  0.10529742  0.49986698    -0.11600
C818        C  0.74641930  0.08948029  0.47285818     0.03900
C819        C  0.74628564  0.05967494  0.47426819    -0.12100
C820        C  0.72715001  0.04509577  0.50175175     0.18700
C821        C  0.70782785  0.06074428  0.52812031    -0.09200
C822        C  0.70803725  0.09051354  0.52700953    -0.02100
H823        H  0.76086291  0.04776649  0.45322888     0.05300
C824        C  0.72739237  0.01357084  0.50189549     0.20700
H825        H  0.69309059  0.10218015  0.54774343     0.10400
C826        C  0.74643721  0.99919199  0.52912526    -0.15500
C827        C  0.74750655  0.96939624  0.52943899     0.03400
C828        C  0.72958897  0.95346331  0.50151381    -0.10800
C829        C  0.71009294  0.96796521  0.47508612    -0.00800
C830        C  0.70890679  0.99770995  0.47510254    -0.06000
H831        H  0.76030391  0.01121760  0.55058239     0.06500
H832        H  0.69593232  0.95611345  0.45386452     0.09800
Br833      Br  0.68074334  0.04224576  0.56595647    -0.05700
Br834      Br  0.77133680  0.10716479  0.43071275    -0.02600
Br835      Br  0.77214929  0.95167994  0.57113624     0.00200
Br836      Br  0.68178142  0.01583915  0.43791135    -0.04200
C837        C  0.73500523  0.18734807  0.86739229    -0.11600
C838        C  0.71731710  0.16932109  0.84230880     0.03900
C839        C  0.71824609  0.17041615  0.79618388    -0.12100
C840        C  0.73681322  0.18897044  0.77429743     0.18700
C841        C  0.75515243  0.20626155  0.79910823    -0.09200
C842        C  0.75424803  0.20526199  0.84528375    -0.02100
H843        H  0.70435506  0.15675875  0.77722538     0.05300
C844        C  0.73570498  0.19074478  0.72567854     0.20700
H845        H  0.76803192  0.21917548  0.86397883     0.10400
C846        C  0.71343229  0.20587689  0.70644068    -0.15500
C847        C  0.71084123  0.20711804  0.66053630     0.03400
C848        C  0.73045264  0.19242920  0.63309001    -0.10800
C849        C  0.75323864  0.17800572  0.65248376    -0.00800
C850        C  0.75596470  0.17706734  0.69836920    -0.06000
H851        H  0.69811054  0.21695397  0.72730421     0.06500
H852        H  0.76870793  0.16692498  0.63189525     0.09800
Br853      Br  0.78087197  0.23231737  0.77127270    -0.05700
Br854      Br  0.69257855  0.14173040  0.86892428    -0.02600
Br855      Br  0.68145806  0.23087701  0.63735771     0.00200
Br856      Br  0.78725657  0.15634034  0.72225252    -0.04200
C857        C  0.72514375  0.19316927  0.13300210    -0.11600
C858        C  0.70288027  0.20679516  0.15675014     0.03900
C859        C  0.70262285  0.20652186  0.20293005    -0.12100
C860        C  0.72425673  0.19300347  0.22621444     0.18700
C861        C  0.74638278  0.17928505  0.20269560    -0.09200
C862        C  0.74678901  0.17966285  0.15657743    -0.02100
H863        H  0.68559405  0.21720444  0.22086299     0.05300
C864        C  0.72305882  0.19317025  0.27497922     0.20700
H865        H  0.76389289  0.16884549  0.13903458     0.10400
C866        C  0.70173118  0.17762109  0.29669959    -0.15500
C867        C  0.70020209  0.17683975  0.34288995     0.03400
C868        C  0.72021255  0.19209038  0.36808733    -0.10800
C869        C  0.74121179  0.20801696  0.34603745    -0.00800
C870        C  0.74267614  0.20879399  0.30003279    -0.06000
H871        H  0.68655081  0.16556310  0.27755899     0.06500
H872        H  0.75659205  0.22011091  0.36473582     0.09800
Br873      Br  0.77591528  0.15881780  0.23193143    -0.05700
Br874      Br  0.67313659  0.22760253  0.12871404    -0.02600
Br875      Br  0.67177530  0.15291050  0.36912801     0.00200
Br876      Br  0.77146485  0.23204136  0.27311832    -0.04200
C877        C  0.73514023  0.10542461  0.00406979    -0.11600
C878        C  0.71582791  0.08899121  0.02911329     0.03900
C879        C  0.71758937  0.05933676  0.02767887    -0.12100
C880        C  0.73824088  0.04563007  0.00145753     0.18700
C881        C  0.75750922  0.06193849  0.97647357    -0.09200
C882        C  0.75612651  0.09161031  0.97844074    -0.02100
H883        H  0.70266870  0.04686143  0.04692003     0.05300
C884        C  0.73831812  0.01430414  0.99898593     0.20700
H885        H  0.77085723  0.10392142  0.95860646     0.10400
C886        C  0.71687266  0.00059609  0.97528235    -0.15500
C887        C  0.71577064  0.97095639  0.97264047     0.03400
C888        C  0.73622545  0.95449117  0.99462388    -0.10800
C889        C  0.75799753  0.96833082  0.01774648    -0.00800
C890        C  0.75910081  0.99800732  0.02019584    -0.06000
H891        H  0.70104948  0.01307613  0.95840906     0.06500
H892        H  0.77382448  0.95602440  0.03489810     0.09800
Br893      Br  0.78478038  0.04456407  0.93714088    -0.05700
Br894      Br  0.68732943  0.10572058  0.06713106    -0.02600
Br895      Br  0.68693811  0.95439980  0.93624797     0.00200
Br896      Br  0.78872100  0.01534925  0.05401839    -0.04200
C897        C  0.21493534  0.71488113  0.85505031    -0.11600
C898        C  0.23091101  0.73478974  0.83040993     0.03900
C899        C  0.23103687  0.73337483  0.78427449    -0.12100
C900        C  0.21521916  0.71265619  0.76200376     0.18700
C901        C  0.19909459  0.69301488  0.78634942    -0.09200
C902        C  0.19922472  0.69410377  0.83238673    -0.02100
H903        H  0.24366153  0.74842531  0.76559570     0.05300
C904        C  0.21596759  0.71160227  0.71336148     0.20700
H905        H  0.18657229  0.67883422  0.85056786     0.10400
C906        C  0.22954918  0.68876717  0.69185633    -0.15500
C907        C  0.23028491  0.68680765  0.64576940     0.03400
C908        C  0.21713901  0.70806596  0.62042214    -0.10800
C909        C  0.20383658  0.73105405  0.64230897    -0.00800
C910        C  0.20322323  0.73298082  0.68826600    -0.06000
H911        H  0.23976935  0.67246509  0.71112053     0.06500
H912        H  0.19356319  0.74758158  0.62358581     0.09800
Br913      Br  0.17570438  0.66504406  0.75811044    -0.05700
Br914      Br  0.25414192  0.76346991  0.85702781    -0.02600
Br915      Br  0.25098939  0.65555204  0.62016380     0.00200
Br916      Br  0.18407874  0.76482483  0.71519267    -0.04200
C917        C  0.21363399  0.71088049  0.35497301    -0.11600
C918        C  0.22678207  0.73256703  0.32994755     0.03900
C919        C  0.22437973  0.73249830  0.28398759    -0.12100
C920        C  0.20919743  0.71110872  0.26218985     0.18700
C921        C  0.19629668  0.68938657  0.28687209    -0.09200
C922        C  0.19856290  0.68940274  0.33281930    -0.02100
H923        H  0.23485825  0.74894247  0.26500163     0.05300
C924        C  0.20842383  0.71096528  0.21351589     0.20700
H925        H  0.18819194  0.67268101  0.35133391     0.10400
C926        C  0.22427221  0.69047020  0.19019102    -0.15500
C927        C  0.22482954  0.69000323  0.14409544     0.03400
C928        C  0.20951754  0.71060571  0.12047752    -0.10800
C929        C  0.19365420  0.73117362  0.14399308    -0.00800
C930        C  0.19285887  0.73134336  0.19017679    -0.06000
H931        H  0.23654097  0.67492684  0.20803986     0.06500
H932        H  0.18157151  0.74697263  0.12638228     0.09800
Br933      Br  0.17490857  0.65962490  0.25920580    -0.05700
Br934      Br  0.24994671  0.76176414  0.35564600    -0.02600
Br935      Br  0.24839936  0.66181700  0.11576704     0.00200
Br936      Br  0.16963065  0.75915097  0.22006367    -0.04200
C937        C  0.97912673  0.71083889  0.50601954    -0.11600
C938        C  0.99475979  0.69049485  0.52977493     0.03900
C939        C  0.02452543  0.69071348  0.52790832    -0.12100
C940        C  0.03915819  0.71112088  0.50307530     0.18700
C941        C  0.02365420  0.73157507  0.47975638    -0.09200
C942        C  0.99391160  0.73137751  0.48146793    -0.02100
H943        H  0.03634072  0.67506978  0.54625792     0.05300
C944        C  0.07058327  0.71045935  0.50110721     0.20700
H945        H  0.98228080  0.74707177  0.46293922     0.10400
C946        C  0.08418448  0.69112818  0.47247395    -0.15500
C947        C  0.11385642  0.69045320  0.46861432     0.03400
C948        C  0.13046456  0.70964453  0.49344645    -0.10800
C949        C  0.11674429  0.72887401  0.52235248    -0.00800
C950        C  0.08706876  0.72910463  0.52675979    -0.06000
H951        H  0.07161000  0.67669808  0.45267160     0.06500
H952        H  0.12917729  0.74333465  0.54231653     0.09800
Br953      Br  0.04228229  0.75979821  0.44448174    -0.05700
Br954      Br  0.97681321  0.66318221  0.56770065    -0.02600
Br955      Br  0.13028350  0.66390968  0.42709932     0.00200
Br956      Br  0.06988590  0.75450363  0.56913320    -0.04200
C957        C  0.89305000  0.70677585  0.63969667    -0.11600
C958        C  0.88428232  0.68255145  0.66381218     0.03900
C959        C  0.88335692  0.68358862  0.71008598    -0.12100
C960        C  0.89100948  0.70828322  0.73318351     0.18700
C961        C  0.90063829  0.73202383  0.70953085    -0.09200
C962        C  0.90140680  0.73120474  0.66341615    -0.02100
H963        H  0.87625268  0.66511009  0.72821878     0.05300
C964        C  0.88930754  0.70879654  0.78197702     0.20700
H965        H  0.90876313  0.74988864  0.64607746     0.10400
C966        C  0.90933926  0.69346613  0.80606433    -0.15500
C967        C  0.90914919  0.69444645  0.85224406     0.03400
C968        C  0.88846161  0.71079500  0.87499582    -0.10800
C969        C  0.86838725  0.72607170  0.85089219    -0.00800
C970        C  0.86849889  0.72496714  0.80473855    -0.06000
H971        H  0.92559680  0.68124269  0.78881491     0.06500
H972        H  0.85239274  0.73869002  0.86805729     0.09800
Br973      Br  0.91370878  0.76578576  0.73891698    -0.05700
Br974      Br  0.87216678  0.64769259  0.63655799    -0.02600
Br975      Br  0.93903182  0.67509858  0.88246862     0.00200
Br976      Br  0.83953065  0.74544510  0.77427502    -0.04200
C977        C  0.89402696  0.71716576  0.37371791    -0.11600
C978        C  0.90727454  0.74007847  0.35163744     0.03900
C979        C  0.90617710  0.74176364  0.30561423    -0.12100
C980        C  0.89248665  0.72074532  0.28083323     0.18700
C981        C  0.87984530  0.69756801  0.30249652    -0.09200
C982        C  0.88058525  0.69596583  0.34856170    -0.02100
H983        H  0.91661847  0.75922902  0.28893784     0.05300
C984        C  0.89317532  0.72236939  0.23222861     0.20700
H985        H  0.87042057  0.67816812  0.36477266     0.10400
C986        C  0.91340274  0.70624506  0.20877775    -0.15500
C987        C  0.91414854  0.70629454  0.16268348     0.03400
C988        C  0.89419102  0.72252585  0.13930385    -0.10800
C989        C  0.87472557  0.73963573  0.16286697    -0.00800
C990        C  0.87408615  0.73962627  0.20908149    -0.06000
H991        H  0.92861510  0.69349306  0.22648096     0.06500
H992        H  0.85939010  0.75232120  0.14530689     0.09800
Br993      Br  0.86139321  0.66768565  0.27032352    -0.05700
Br994      Br  0.92928631  0.76843731  0.38170019    -0.02600
Br995      Br  0.94378820  0.68497787  0.13354293     0.00200
Br996      Br  0.84623668  0.76265323  0.23919512    -0.04200
C997        C  0.97491715  0.72027591  0.99820600    -0.11600
C998        C  0.98934941  0.73774974  0.96767223     0.03900
C999        C  0.01913570  0.73729240  0.96534922    -0.12100
C1000       C  0.03482529  0.71927195  0.99255914     0.18700
C1001       C  0.02040375  0.70165352  0.02265514    -0.09200
C1002       C  0.99074626  0.70216963  0.02510864    -0.02100
H1003       H  0.03009211  0.75060988  0.94164732     0.05300
C1004       C  0.06621151  0.71900372  0.98924234     0.20700
H1005       H  0.97999030  0.68838148  0.04832778     0.10400
C1006       C  0.08166533  0.74061568  0.00999436    -0.15500
C1007       C  0.11143611  0.74021636  0.00980530     0.03400
C1008       C  0.12633807  0.71810780  0.98753742    -0.10800
C1009       C  0.11063972  0.69654770  0.96660009    -0.00800
C1010       C  0.08087818  0.69681924  0.96743949    -0.06000
H1011       H  0.07046432  0.75742336  0.02762180     0.06500
H1012       H  0.12155175  0.67932392  0.94955035     0.09800
Br1013     Br  0.04035287  0.67665839  0.06126354    -0.05700
Br1014     Br  0.96948690  0.76052500  0.92575656    -0.02600
Br1015     Br  0.13008246  0.76895981  0.04422879     0.00200
Br1016     Br  0.06103149  0.66630193  0.93892028    -0.04200
C1017       C  0.36635011  0.19134424  0.62654723    -0.11600
C1018       C  0.34951915  0.20995416  0.65263687     0.03900
C1019       C  0.35173808  0.20961914  0.69861685    -0.12100
C1020       C  0.37051210  0.19099015  0.71932883     0.18700
C1021       C  0.38751419  0.17257625  0.69339488    -0.09200
C1022       C  0.38556436  0.17309164  0.64733246    -0.02100
H1023       H  0.33861003  0.22385984  0.71841496     0.05300
C1024       C  0.37044585  0.18999124  0.76805308     0.20700
H1025       H  0.39854099  0.15861580  0.62771712     0.10400
C1026       C  0.34812819  0.17591764  0.78956617    -0.15500
C1027       C  0.34605327  0.17575565  0.83561242     0.03400
C1028       C  0.36641862  0.19040876  0.86113190    -0.10800
C1029       C  0.38916480  0.20396631  0.83940014    -0.00800
C1030       C  0.39127840  0.20385682  0.79323876    -0.06000
H1031       H  0.33224308  0.16489469  0.77031418     0.06500
H1032       H  0.40513252  0.21508019  0.85833945     0.09800
Br1033     Br  0.41264332  0.14555602  0.71948797    -0.05700
Br1034     Br  0.32418910  0.23720656  0.62737864    -0.02600
Br1035     Br  0.31592071  0.15352885  0.86113779     0.00200
Br1036     Br  0.42253351  0.22339879  0.76599932    -0.04200
C1037       C  0.35662069  0.18447642  0.12662317    -0.11600
C1038       C  0.33429222  0.19683320  0.15196332     0.03900
C1039       C  0.33454061  0.19510454  0.19800802    -0.12100
C1040       C  0.35655368  0.18115136  0.21971357     0.18700
C1041       C  0.37809539  0.16763214  0.19464549    -0.09200
C1042       C  0.37815400  0.16962335  0.14858999    -0.02100
H1043       H  0.31783269  0.20543732  0.21714583     0.05300
C1044       C  0.35720978  0.18228986  0.26848003     0.20700
H1045       H  0.39509295  0.15937517  0.12986365     0.10400
C1046       C  0.33620038  0.16814797  0.29308375    -0.15500
C1047       C  0.33559097  0.16985762  0.33928536     0.03400
C1048       C  0.35633151  0.18605049  0.36156530    -0.10800
C1049       C  0.37726442  0.20019696  0.33669238    -0.00800
C1050       C  0.37760650  0.19875897  0.29062882    -0.06000
H1051       H  0.32029305  0.15561856  0.27622926     0.06500
H1052       H  0.39318547  0.21292232  0.35316310     0.09800
Br1053     Br  0.40757655  0.14592828  0.22184478    -0.05700
Br1054     Br  0.30371956  0.21801337  0.12675607    -0.02600
Br1055     Br  0.30699673  0.14829269  0.36985601     0.00200
Br1056     Br  0.40538894  0.22095957  0.25937970    -0.04200
C1057       C  0.35986037  0.10357110  0.49291516    -0.11600
C1058       C  0.34063011  0.08723655  0.51834709     0.03900
C1059       C  0.34185966  0.05749921  0.51640057    -0.12100
C1060       C  0.36187247  0.04351320  0.48930057     0.18700
C1061       C  0.38054387  0.05971905  0.46301147    -0.09200
C1062       C  0.37964164  0.08942681  0.46536377    -0.02100
H1063       H  0.32736724  0.04517512  0.53663506     0.05300
C1064       C  0.36289160  0.01203756  0.48906170     0.20700
H1065       H  0.39421521  0.10155471  0.44498065     0.10400
C1066       C  0.34069997  0.99666869  0.46978516    -0.15500
C1067       C  0.34076631  0.96688072  0.46934531     0.03400
C1068       C  0.36371184  0.95185646  0.48803313    -0.10800
C1069       C  0.38575692  0.96746665  0.50770318    -0.00800
C1070       C  0.38525835  0.99719753  0.50895200    -0.06000
H1071       H  0.32322779  0.00795841  0.45489441     0.06500
H1072       H  0.40319956  0.95649142  0.52319904     0.09800
Br1073     Br  0.40693681  0.04223783  0.42232605    -0.05700
Br1074     Br  0.31336948  0.10404076  0.55833124    -0.02600
Br1075     Br  0.30927232  0.94843315  0.44138314     0.00200
Br1076     Br  0.41472768  0.01661508  0.54034755    -0.04200
C1077       C  0.36836956  0.86561764  0.85682434    -0.11600
C1078       C  0.34800092  0.85097201  0.83139611     0.03900
C1079       C  0.34941089  0.85211499  0.78531805    -0.12100
C1080       C  0.37080017  0.86760611  0.76386252     0.18700
C1081       C  0.39105779  0.88229215  0.78895906    -0.09200
C1082       C  0.38986469  0.88101852  0.83498747    -0.02100
H1083       H  0.33383228  0.84068871  0.76602267     0.05300
C1084       C  0.37130074  0.86837943  0.71524612     0.20700
H1085       H  0.40550740  0.89267121  0.85381675     0.10400
C1086       C  0.35099387  0.88474363  0.69350644    -0.15500
C1087       C  0.35016556  0.88524539  0.64741342     0.03400
C1088       C  0.37005310  0.86916823  0.62240417    -0.10800
C1089       C  0.39058478  0.85308735  0.64433926    -0.00800
C1090       C  0.39111044  0.85232830  0.69040490    -0.06000
H1091       H  0.33572369  0.89716326  0.71254150     0.06500
H1092       H  0.40576248  0.84038952  0.62557023     0.09800
Br1093     Br  0.42005239  0.90513801  0.76184774    -0.05700
Br1094     Br  0.31862450  0.82790552  0.85690023    -0.02600
Br1095     Br  0.32227542  0.90924928  0.62074028     0.00200
Br1096     Br  0.41827036  0.82800718  0.71795807    -0.04200
C1097       C  0.36790770  0.87273999  0.12250495    -0.11600
C1098       C  0.34589497  0.88564717  0.14782253     0.03900
C1099       C  0.34673721  0.88490132  0.19393812    -0.12100
C1100       C  0.36915701  0.87153366  0.21561126     0.18700
C1101       C  0.39107324  0.85864030  0.19057119    -0.09200
C1102       C  0.39048787  0.85962499  0.14450989    -0.02100
H1103       H  0.32979803  0.89484061  0.21308316     0.05300
C1104       C  0.36869749  0.87032653  0.26430538     0.20700
H1105       H  0.40736607  0.84925745  0.12580414     0.10400
C1106       C  0.34782278  0.85397574  0.28549615    -0.15500
C1107       C  0.34689471  0.85184228  0.33151705     0.03400
C1108       C  0.36749073  0.86603239  0.35716551    -0.10800
C1109       C  0.38816144  0.88266172  0.33567049    -0.00800
C1110       C  0.38860682  0.88526214  0.28978451    -0.06000
H1111       H  0.33228240  0.84262245  0.26602482     0.06500
H1112       H  0.40366699  0.89434112  0.35473369     0.09800
Br1113     Br  0.42127962  0.83791580  0.21770377    -0.05700
Br1114     Br  0.31468149  0.90563370  0.12204551    -0.02600
Br1115     Br  0.31763142  0.82836001  0.35650466     0.00200
Br1116     Br  0.41585605  0.91056240  0.26362289    -0.04200
C1117       C  0.36059223  0.10469575  0.98433389    -0.11600
C1118       C  0.38057664  0.08990469  0.95762238     0.03900
C1119       C  0.38056408  0.06021138  0.95682289    -0.12100
C1120       C  0.36085157  0.04490761  0.98214599     0.18700
C1121       C  0.34077808  0.05959089  0.00852048    -0.09200
C1122       C  0.34055585  0.08928376  0.00904778    -0.02100
H1123       H  0.39599973  0.04897185  0.93637391     0.05300
C1124       C  0.36233782  0.01363741  0.98200112     0.20700
H1125       H  0.32527065  0.10036238  0.02997196     0.10400
C1126       C  0.38458110  0.00040677  0.00421998    -0.15500
C1127       C  0.38637547  0.97081099  0.00610093     0.03400
C1128       C  0.36569808  0.95391388  0.98491322    -0.10800
C1129       C  0.34352294  0.96733674  0.96239583    -0.00800
C1130       C  0.34181096  0.99695604  0.96063903    -0.06000
H1131       H  0.40030390  0.01322813  0.02098405     0.06500
H1132       H  0.32758283  0.95475223  0.94572286     0.09800
Br1133     Br  0.31434800  0.03996208  0.04610323    -0.05700
Br1134     Br  0.40746705  0.10896730  0.91997497    -0.02600
Br1135     Br  0.41633480  0.95514577  0.04094840     0.00200
Br1136     Br  0.31143691  0.01376135  0.92814197    -0.04200
loop_ 
_geom_bond_atom_site_label_1 
_geom_bond_atom_site_label_2 
_geom_bond_distance 
_geom_bond_site_symmetry_2 
_ccdc_geom_bond_type 
O1           Ni9   1.912       .  S
O1           C11   1.281       .  A
O2           Ni9   1.911       .  S
O2           C12   1.280       .  A
O3           Ni9   1.917   1_554  S
O3           C13   1.282       .  A
O4           Ni9   1.910       .  S
O4           C14   1.280       .  A
O5          Ni10   1.922       .  S
O5           C14   1.282       .  A
O6          Ni10   1.916   1_554  S
O6           C13   1.280       .  A
O7          Ni10   1.916       .  S
O7           C12   1.281       .  A
O8          Ni10   1.917       .  S
O8           C11   1.281       .  A
Ni9         Ni10   2.384       .  S
C11         C258   1.495       .  S
C12        C1128   1.477       .  S
C13        C1097   1.481       .  S
C14        C1077   1.480       .  S
O15         Ni23   1.923       .  S
O15          C25   1.282       .  A
O16         Ni23   1.922       .  S
O16          C26   1.283       .  A
O17         Ni23   1.916       .  S
O17          C27   1.281       .  A
O18         Ni23   1.914       .  S
O18          C28   1.281       .  A
O19         Ni24   1.918       .  S
O19          C28   1.280       .  A
O20         Ni24   1.912       .  S
O20          C27   1.280       .  A
O21         Ni24   1.920       .  S
O21          C26   1.281       .  A
O22         Ni24   1.922       .  S
O22          C25   1.283       .  A
Ni23        Ni24   2.384       .  S
C25         C292   1.500       .  S
C26        C1068   1.487       .  S
C27        C1088   1.474       .  S
C28        C1108   1.480       .  S
O29         Ni37   1.924       .  S
O29          C39   1.283       .  A
O30         Ni37   1.919       .  S
O30          C40   1.282       .  A
O31         Ni37   1.917   1_554  S
O31          C41   1.280       .  A
O32         Ni37   1.913       .  S
O32          C42   1.280       .  A
O33         Ni38   1.922       .  S
O33          C42   1.282       .  A
O34         Ni38   1.919   1_554  S
O34          C41   1.282       .  A
O35         Ni38   1.909       .  S
O35          C40   1.279       .  A
O36         Ni38   1.913   1_554  S
O36          C39   1.280   1_554  A
Ni37        Ni38   2.384       .  S
C39         C189   1.498       .  S
C40        C1117   1.473       .  S
C41        C1037   1.484       .  S
C42        C1028   1.482       .  S
O43         Ni51   1.925       .  S
O43          C53   1.283       .  A
O44         Ni51   1.923       .  S
O44          C54   1.282       .  A
O45         Ni51   1.918       .  S
O45          C55   1.281       .  A
O46         Ni51   1.925       .  S
O46          C56   1.282       .  A
O47         Ni52   1.910       .  S
O47          C56   1.280       .  A
O48         Ni52   1.919       .  S
O48          C55   1.281       .  A
O49         Ni52   1.919       .  S
O49          C54   1.282       .  A
O50         Ni52   1.921       .  S
O50          C53   1.282       .  A
Ni51        Ni52   2.384       .  S
C53         C223   1.506       .  S
C54        C1057   1.483       .  S
C55        C1017   1.477       .  S
C56        C1048   1.480       .  S
O57         Ni65   1.917       .  S
O57          C67   1.280       .  A
O58         Ni65   1.910       .  S
O58          C68   1.280       .  A
O59         Ni65   1.909       .  S
O59          C69   1.279       .  A
O60         Ni65   1.918   1_556  S
O60          C70   1.281       .  A
O61         Ni66   1.914   1_556  S
O61          C70   1.280       .  A
O62         Ni66   1.924       .  S
O62          C69   1.282       .  A
O63         Ni66   1.927       .  S
O63          C68   1.283       .  A
O64         Ni66   1.924       .  S
O64          C67   1.283       .  A
Ni65        Ni66   2.386       .  S
C67         C393   1.505       .  S
C68         C997   1.477   1_554  S
C69         C988   1.474       .  S
C70         C968   1.473       .  S
O71         Ni79   1.912       .  S
O71          C81   1.280       .  A
O72         Ni79   1.914       .  S
O72          C82   1.280       .  A
O73         Ni79   1.927       .  S
O73          C83   1.282       .  A
O74         Ni79   1.922       .  S
O74          C84   1.282       .  A
O75         Ni80   1.914       .  S
O75          C84   1.280       .  A
O76         Ni80   1.913       .  S
O76          C83   1.281       .  A
O77         Ni80   1.925       .  S
O77          C82   1.283       .  A
O78         Ni80   1.928       .  S
O78          C81   1.283       .  A
Ni79        Ni80   2.382       .  S
C81         C428   1.500       .  S
C82         C937   1.481       .  S
C83         C957   1.492       .  S
C84         C977   1.482       .  S
O85         Ni93   1.921       .  S
O85          C95   1.283       .  A
O86         Ni93   1.921       .  S
O86          C96   1.281       .  A
O87         Ni93   1.916   1_554  S
O87          C97   1.281       .  A
O88         Ni93   1.923       .  S
O88          C98   1.282       .  A
O89         Ni94   1.909       .  S
O89          C98   1.280       .  A
O90         Ni94   1.916   1_554  S
O90          C97   1.281       .  A
O91         Ni94   1.923       .  S
O91          C96   1.283       .  A
O92         Ni94   1.924       .  S
O92          C95   1.281       .  A
Ni93        Ni94   2.382       .  S
C95         C257   1.508       .  S
C96        C1008   1.486       .  S
C97         C928   1.477       .  S
C98         C897   1.480       .  S
O99        Ni107   1.925       .  S
O99         C109   1.284       .  A
O100       Ni107   1.926       .  S
O100        C110   1.283       .  A
O101       Ni107   1.903       .  S
O101        C111   1.279       .  A
O102       Ni107   1.914       .  S
O102        C112   1.280       .  A
O103       Ni108   1.918       .  S
O103        C112   1.282       .  A
O104       Ni108   1.926       .  S
O104        C111   1.283       .  A
O105       Ni108   1.913       .  S
O105        C110   1.280       .  A
O106       Ni108   1.911       .  S
O106        C109   1.279       .  A
Ni107      Ni108   2.384       .  S
C109        C291   1.499       .  S
C110        C948   1.480       .  S
C111        C908   1.479       .  S
C112        C917   1.480       .  S
O113       Ni121   1.915       .  S
O113        C123   1.280       .  A
O114       Ni121   1.913   1_554  S
O114        C124   1.280       .  A
O115       Ni121   1.920   1_554  S
O115        C125   1.281       .  A
O116       Ni121   1.916       .  S
O116        C126   1.281       .  A
O117       Ni122   1.921   1_556  S
O117        C126   1.282       .  A
O118       Ni122   1.915       .  S
O118        C125   1.281       .  A
O119       Ni122   1.918       .  S
O119        C124   1.281       .  A
O120       Ni122   1.917       .  S
O120        C123   1.282   1_554  A
Ni121      Ni122   2.384   1_556  S
C123        C326   1.496       .  S
C124        C877   1.476       .  S
C125        C857   1.481       .  S
C126        C837   1.480       .  S
O127       Ni135   1.916       .  S
O127        C137   1.277       .  A
O128       Ni135   1.918       .  S
O128        C138   1.281       .  A
O129       Ni135   1.922       .  S
O129        C139   1.283       .  A
O130       Ni135   1.931       .  S
O130        C140   1.284       .  A
O131       Ni136   1.904       .  S
O131        C140   1.278       .  A
O132       Ni136   1.910       .  S
O132        C139   1.279       .  A
O133       Ni136   1.933       .  S
O133        C138   1.285       .  A
O134       Ni136   1.932       .  S
O134        C137   1.286       .  A
Ni135      Ni136   2.382       .  S
C137        C359   1.513       .  S
C138        C817   1.488       .  S
C139        C848   1.478       .  S
C140        C868   1.481       .  S
O141       Ni149   1.915       .  S
O141        C151   1.281   1_556  A
O142       Ni149   1.917       .  S
O142        C152   1.281       .  A
O143       Ni149   1.920   1_554  S
O143        C153   1.281       .  A
O144       Ni149   1.915       .  S
O144        C154   1.281       .  A
O145       Ni150   1.923   1_556  S
O145        C154   1.281       .  A
O146       Ni150   1.915       .  S
O146        C153   1.280       .  A
O147       Ni150   1.915   1_556  S
O147        C152   1.281       .  A
O148       Ni150   1.917       .  S
O148        C151   1.281       .  A
Ni149      Ni150   2.386   1_556  S
C151        C394   1.495       .  S
C152        C888   1.477       .  S
C153        C797   1.473       .  S
C154        C777   1.476       .  S
O155       Ni163   1.924       .  S
O155        C165   1.283       .  A
O156       Ni163   1.924       .  S
O156        C166   1.283       .  A
O157       Ni163   1.910       .  S
O157        C167   1.279       .  A
O158       Ni163   1.924       .  S
O158        C168   1.282       .  A
O159       Ni164   1.919       .  S
O159        C168   1.281       .  A
O160       Ni164   1.924       .  S
O160        C167   1.283       .  A
O161       Ni164   1.920       .  S
O161        C166   1.281       .  A
O162       Ni164   1.919       .  S
O162        C165   1.281       .  A
Ni163      Ni164   2.384       .  S
C165        C427   1.505       .  S
C166        C828   1.483       .  S
C167        C788   1.477       .  S
C168        C808   1.483       .  S
N169        C174   1.355       .  A
N169        C173   1.357       .  A
N169        H201   1.042   1_554  S
N170        C177   1.350       .  A
N170        C178   1.349       .  A
N171        C176   1.354       .  A
N171        C175   1.355       .  A
N171        H202   1.034   1_554  S
N172        C179   1.357       .  A
N172        C180   1.355       .  A
C173        C181   1.385       .  A
C173        C189   1.417   1_554  A
C174        C190   1.419       .  A
C174        C182   1.388       .  A
C175        C183   1.385       .  A
C175        C192   1.414   1_554  A
C176        C191   1.420       .  A
C176        C184   1.390       .  A
C177        C189   1.416       .  A
C177        C185   1.390       .  A
C178        C192   1.408       .  A
C178        C186   1.383       .  A
C179        C187   1.389   1_554  A
C179        C190   1.425       .  A
C180        C188   1.385   1_554  A
C180        C191   1.422       .  A
C181        C182   1.374       .  A
C181        H193   1.080       .  S
C182        H194   1.082       .  S
C183        C184   1.371       .  A
C183        H195   1.082       .  S
C184        H196   1.081       .  S
C185        C186   1.373       .  A
C185        H197   1.081       .  S
C186        H198   1.082       .  S
C187        C188   1.369       .  A
C187        H199   1.078       .  S
C188        H200   1.080       .  S
C190        C451   1.506       .  S
C191        C757   1.494       .  S
C192        C737   1.486       .  S
N203        C208   1.356       .  A
N203        C207   1.357       .  A
N203        H235   1.042       .  S
N204        C211   1.354       .  A
N204        C212   1.353       .  A
N205        C210   1.353       .  A
N205        C209   1.352       .  A
N205        H236   1.041       .  S
N206        C213   1.352       .  A
N206        C214   1.355       .  A
C207        C215   1.387       .  A
C207        C223   1.422       .  A
C208        C224   1.421       .  A
C208        C216   1.388       .  A
C209        C217   1.389       .  A
C209        C226   1.415       .  A
C210        C225   1.413       .  A
C210        C218   1.385       .  A
C211        C223   1.422       .  A
C211        C219   1.390       .  A
C212        C226   1.414       .  A
C212        C220   1.384       .  A
C213        C221   1.387       .  A
C213        C224   1.420       .  A
C214        C222   1.382       .  A
C214        C225   1.414       .  A
C215        C216   1.378       .  A
C215        H227   1.082       .  S
C216        H228   1.082       .  S
C217        C218   1.373       .  A
C217        H229   1.081       .  S
C218        H230   1.082       .  S
C219        C220   1.372       .  A
C219        H231   1.080       .  S
C220        H232   1.081       .  S
C221        C222   1.373       .  A
C221        H233   1.077       .  S
C222        H234   1.082       .  S
C224        C465   1.500       .  S
C225        C717   1.499       .  S
C226        C697   1.490       .  S
N237        C242   1.357       .  A
N237        C241   1.356       .  A
N237        H269   1.039   1_556  S
N238        C245   1.357   1_556  A
N238        C246   1.355   1_556  A
N239        C244   1.356       .  A
N239        C243   1.354       .  A
N239        H270   1.030       .  S
N240        C247   1.350       .  A
N240        C248   1.349       .  A
C241        C249   1.385       .  A
C241        C257   1.419       .  A
C242        C258   1.418       .  A
C242        C250   1.385       .  A
C243        C251   1.389   1_554  A
C243        C260   1.420       .  A
C244        C259   1.415       .  A
C244        C252   1.385   1_554  A
C245        C257   1.423   1_554  A
C245        C253   1.387       .  A
C246        C260   1.422       .  A
C246        C254   1.386       .  A
C247        C255   1.390       .  A
C247        C258   1.414   1_554  A
C248        C256   1.383       .  A
C248        C259   1.407       .  A
C249        C250   1.372       .  A
C249        H261   1.078       .  S
C250        H262   1.079       .  S
C251        C252   1.373       .  A
C251        H263   1.081       .  S
C252        H264   1.082       .  S
C253        C254   1.369       .  A
C253        H265   1.078       .  S
C254        H266   1.080       .  S
C255        C256   1.372       .  A
C255        H267   1.081       .  S
C256        H268   1.083       .  S
C259        C677   1.486       .  S
C260        C768   1.494       .  S
N271        C276   1.355       .  A
N271        C275   1.354       .  A
N271        H303   1.043       .  S
N272        C279   1.353       .  A
N272        C280   1.354       .  A
N273        C278   1.352       .  A
N273        C277   1.353       .  A
N273        H304   1.041       .  S
N274        C281   1.353       .  A
N274        C282   1.351       .  A
C275        C283   1.386       .  A
C275        C291   1.417       .  A
C276        C292   1.418       .  A
C276        C284   1.386       .  A
C277        C285   1.386       .  A
C277        C294   1.413       .  A
C278        C293   1.417       .  A
C278        C286   1.389       .  A
C279        C291   1.422       .  A
C279        C287   1.390       .  A
C280        C294   1.412       .  A
C280        C288   1.382       .  A
C281        C289   1.389       .  A
C281        C292   1.418       .  A
C282        C290   1.385       .  A
C282        C293   1.414       .  A
C283        C284   1.375       .  A
C283        H295   1.080       .  S
C284        H296   1.080       .  S
C285        C286   1.376       .  A
C285        H297   1.082       .  S
C286        H298   1.082       .  S
C287        C288   1.370       .  A
C287        H299   1.077       .  S
C288        H300   1.082       .  S
C289        C290   1.377       .  A
C289        H301   1.081       .  S
C290        H302   1.082       .  S
C293        C657   1.496       .  S
C294        C728   1.491       .  S
N305        C310   1.354   1_554  A
N305        C309   1.355   1_554  A
N305        H337   1.043       .  S
N306        C313   1.356       .  A
N306        C314   1.354       .  A
N307        C312   1.356       .  A
N307        C311   1.354       .  A
N307        H338   1.037       .  S
N308        C315   1.352       .  A
N308        C316   1.350       .  A
C309        C317   1.387       .  A
C309        C325   1.418       .  A
C310        C326   1.416       .  A
C310        C318   1.386       .  A
C311        C319   1.389       .  A
C311        C328   1.423       .  A
C312        C327   1.418       .  A
C312        C320   1.385       .  A
C313        C325   1.422   1_554  A
C313        C321   1.386       .  A
C314        C328   1.422       .  A
C314        C322   1.387       .  A
C315        C323   1.390       .  A
C315        C326   1.418   1_554  A
C316        C324   1.382       .  A
C316        C327   1.410       .  A
C317        C318   1.374       .  A
C317        H329   1.082       .  S
C318        H330   1.082       .  S
C319        C320   1.373       .  A
C319        H331   1.081       .  S
C320        H332   1.082   1_554  S
C321        C322   1.366       .  A
C321        H333   1.077       .  S
C322        H334   1.079       .  S
C323        C324   1.372       .  A
C323        H335   1.078       .  S
C324        H336   1.083       .  S
C325        C479   1.504       .  S
C327        C748   1.493       .  S
C328        C637   1.497       .  S
N339        C344   1.355       .  A
N339        C343   1.353       .  A
N339        H371   1.042       .  S
N340        C347   1.361       .  A
N340        C348   1.357       .  A
N341        C346   1.358       .  A
N341        C345   1.353       .  A
N341        H372   1.033       .  S
N342        C349   1.349       .  A
N342        C350   1.349       .  A
C343        C351   1.387       .  A
C343        C359   1.416       .  A
C344        C360   1.415       .  A
C344        C352   1.387       .  A
C345        C353   1.390       .  A
C345        C362   1.424       .  A
C346        C361   1.418       .  A
C346        C354   1.385       .  A
C347        C359   1.431       .  A
C347        C355   1.389       .  A
C348        C362   1.429       .  A
C348        C356   1.385       .  A
C349        C357   1.390       .  A
C349        C360   1.415       .  A
C350        C358   1.383       .  A
C350        C361   1.408       .  A
C351        C352   1.374       .  A
C351        H363   1.082       .  S
C352        H364   1.082       .  S
C353        C354   1.374       .  A
C353        H365   1.081       .  S
C354        H366   1.082       .  S
C355        C356   1.367       .  A
C355        H367   1.076       .  S
C356        H368   1.080       .  S
C357        C358   1.373       .  A
C357        H369   1.081       .  S
C358        H370   1.083       .  S
C360        C493   1.491       .  S
C361        C617   1.492       .  S
C362        C708   1.499       .  S
N373        C378   1.354       .  A
N373        C377   1.355       .  A
N373        H405   1.043   1_554  S
N374        C381   1.356       .  A
N374        C382   1.354       .  A
N375        C380   1.354       .  A
N375        C379   1.353       .  A
N375        H406   1.038   1_554  S
N376        C383   1.351   1_554  A
N376        C384   1.350   1_554  A
C377        C385   1.387       .  A
C377        C393   1.418       .  A
C378        C394   1.418       .  A
C378        C386   1.387       .  A
C379        C387   1.390       .  A
C379        C396   1.420       .  A
C380        C395   1.415       .  A
C380        C388   1.385       .  A
C381        C393   1.423       .  A
C381        C389   1.389   1_554  A
C382        C396   1.418       .  A
C382        C390   1.385   1_554  A
C383        C391   1.389       .  A
C383        C394   1.415   1_556  A
C384        C392   1.383       .  A
C384        C395   1.409   1_556  A
C385        C386   1.376       .  A
C385        H397   1.082       .  S
C386        H398   1.082       .  S
C387        C388   1.374       .  A
C387        H399   1.081       .  S
C388        H400   1.082       .  S
C389        C390   1.369       .  A
C389        H401   1.079       .  S
C390        H402   1.080       .  S
C391        C392   1.373       .  A
C391        H403   1.081       .  S
C392        H404   1.083       .  S
C395        C688   1.488       .  S
C396        C648   1.493       .  S
N407        C412   1.357       .  A
N407        C411   1.356       .  A
N407        H439   1.043       .  S
N408        C415   1.354       .  A
N408        C416   1.354       .  A
N409        C414   1.352       .  A
N409        C413   1.351       .  A
N409        H440   1.040       .  S
N410        C417   1.351       .  A
N410        C418   1.350       .  A
C411        C419   1.389       .  A
C411        C427   1.423       .  A
C412        C428   1.419       .  A
C412        C420   1.385       .  A
C413        C421   1.388       .  A
C413        C430   1.413       .  A
C414        C429   1.413       .  A
C414        C422   1.387       .  A
C415        C427   1.424       .  A
C415        C423   1.390       .  A
C416        C430   1.415       .  A
C416        C424   1.383       .  A
C417        C425   1.391       .  A
C417        C428   1.418       .  A
C418        C426   1.382       .  A
C418        C429   1.408       .  A
C419        C420   1.377       .  A
C419        H431   1.081       .  S
C420        H432   1.082       .  S
C421        C422   1.376       .  A
C421        H433   1.081       .  S
C422        H434   1.082       .  S
C423        C424   1.374       .  A
C423        H435   1.080       .  S
C424        H436   1.082       .  S
C425        C426   1.373       .  A
C425        H437   1.081       .  S
C426        H438   1.082       .  S
C429        C628   1.487       .  S
C430        C668   1.489       .  S
O441       Ni449   1.920       .  S
O441        C451   1.280       .  A
O442       Ni449   1.922       .  S
O442        C452   1.282       .  A
O443       Ni449   1.898       .  S
O443        C453   1.275       .  A
O444       Ni449   1.907   1_556  S
O444        C454   1.278       .  A
O445       Ni450   1.923   1_556  S
O445        C454   1.283       .  A
O446       Ni450   1.933       .  S
O446        C453   1.285       .  A
O447       Ni450   1.925       .  S
O447        C452   1.282       .  A
O448       Ni450   1.920       .  S
O448        C451   1.283       .  A
Ni449      Ni450   2.380       .  S
C452        C597   1.486       .  S
C453        C577   1.488       .  S
C454        C557   1.479       .  S
O455       Ni463   1.918       .  S
O455        C465   1.282       .  A
O456       Ni463   1.925       .  S
O456        C466   1.282       .  A
O457       Ni463   1.925       .  S
O457        C467   1.282       .  A
O458       Ni463   1.919       .  S
O458        C468   1.281       .  A
O459       Ni464   1.917       .  S
O459        C468   1.280       .  A
O460       Ni464   1.914       .  S
O460        C467   1.281       .  A
O461       Ni464   1.924       .  S
O461        C466   1.283       .  A
O462       Ni464   1.925       .  S
O462        C465   1.283       .  A
Ni463      Ni464   2.382       .  S
C466        C537   1.499       .  S
C467        C568   1.484       .  S
C468        C588   1.477       .  S
O469       Ni477   1.920       .  S
O469        C479   1.282       .  A
O470       Ni477   1.920       .  S
O470        C480   1.282       .  A
O471       Ni477   1.916   1_554  S
O471        C481   1.281       .  A
O472       Ni477   1.925       .  S
O472        C482   1.283       .  A
O473       Ni478   1.914       .  S
O473        C482   1.280       .  A
O474       Ni478   1.921   1_554  S
O474        C481   1.281       .  A
O475       Ni478   1.924       .  S
O475        C480   1.282       .  A
O476       Ni478   1.919       .  S
O476        C479   1.281       .  A
Ni477      Ni478   2.381       .  S
C480        C608   1.488       .  S
C481        C528   1.482       .  S
C482        C497   1.487       .  S
O483       Ni491   1.924       .  S
O483        C493   1.284       .  A
O484       Ni491   1.924       .  S
O484        C494   1.282       .  A
O485       Ni491   1.914       .  S
O485        C495   1.280       .  A
O486       Ni491   1.908       .  S
O486        C496   1.279       .  A
O487       Ni492   1.927       .  S
O487        C496   1.284       .  A
O488       Ni492   1.916       .  S
O488        C495   1.281       .  A
O489       Ni492   1.911       .  S
O489        C494   1.279       .  A
O490       Ni492   1.905       .  S
O490        C493   1.279       .  A
Ni491      Ni492   2.388       .  S
C494        C548   1.471       .  S
C495        C508   1.473       .  S
C496        C517   1.481       .  S
C497        C498   1.417       .  A
C497        C502   1.409       .  A
C498        C499   1.398       .  A
C498       Br514   1.920       .  S
C499        C500   1.399       .  A
C499        H503   1.084       .  S
C500        C504   1.478       .  S
C500        C501   1.406       .  A
C501        C502   1.402       .  A
C501       Br513   1.917       .  S
C502        H505   1.083       .  S
C504        C506   1.403       .  A
C504        C510   1.407       .  A
C506        C507   1.401       .  A
C506        H511   1.083       .  S
C507        C508   1.412       .  A
C507       Br515   1.921       .  S
C508        C509   1.402       .  A
C509        C510   1.397       .  A
C509        H512   1.084       .  S
C510       Br516   1.918       .  S
C517        C518   1.416       .  A
C517        C522   1.405       .  A
C518        C519   1.397       .  A
C518       Br534   1.922       .  S
C519        C520   1.400       .  A
C519        H523   1.084       .  S
C520        C524   1.478       .  S
C520        C521   1.408       .  A
C521        C522   1.401       .  A
C521       Br533   1.918       .  S
C522        H525   1.083       .  S
C524        C526   1.401       .  A
C524        C530   1.407       .  A
C526        C527   1.400       .  A
C526        H531   1.084       .  S
C527        C528   1.415       .  A
C527       Br535   1.917       .  S
C528        C529   1.406       .  A
C529        C530   1.398       .  A
C529        H532   1.083       .  S
C530       Br536   1.920       .  S
C537        C538   1.422       .  A
C537        C542   1.412       .  A
C538        C539   1.402       .  A
C538       Br554   1.921       .  S
C539        C540   1.399       .  A
C539        H543   1.084       .  S
C540        C544   1.480       .  S
C540        C541   1.403       .  A
C541        C542   1.401       .  A
C541       Br553   1.919       .  S
C542        H545   1.083       .  S
C544        C546   1.404       .  A
C544        C550   1.407       .  A
C546        C547   1.401   1_455  A
C546        H551   1.083       .  S
C547        C548   1.406       .  A
C547       Br555   1.918       .  S
C548        C549   1.404       .  A
C549        C550   1.400   1_655  A
C549        H552   1.084       .  S
C550       Br556   1.918       .  S
C557        C558   1.416       .  A
C557        C562   1.404       .  A
C558        C559   1.399       .  A
C558       Br574   1.922       .  S
C559        C560   1.400       .  A
C559        H563   1.084       .  S
C560        C564   1.477       .  S
C560        C561   1.408       .  A
C561        C562   1.398       .  A
C561       Br573   1.919       .  S
C562        H565   1.083       .  S
C564        C566   1.400       .  A
C564        C570   1.406       .  A
C566        C567   1.401       .  A
C566        H571   1.084       .  S
C567        C568   1.416       .  A
C567       Br575   1.916       .  S
C568        C569   1.406       .  A
C569        C570   1.397       .  A
C569        H572   1.083       .  S
C570       Br576   1.919       .  S
C577        C578   1.420       .  A
C577        C582   1.409       .  A
C578        C579   1.394       .  A
C578       Br594   1.924       .  S
C579        C580   1.397       .  A
C579        H583   1.084       .  S
C580        C584   1.480       .  S
C580        C581   1.409       .  A
C581        C582   1.403       .  A
C581       Br593   1.919       .  S
C582        H585   1.083       .  S
C584        C586   1.402       .  A
C584        C590   1.410       .  A
C586        C587   1.398       .  A
C586        H591   1.084       .  S
C587        C588   1.410       .  A
C587       Br595   1.919       .  S
C588        C589   1.405       .  A
C589        C590   1.400       .  A
C589        H592   1.084       .  S
C590       Br596   1.921       .  S
C597        C598   1.412       .  A
C597        C602   1.408   1_554  A
C598        C599   1.399       .  A
C598       Br614   1.918       .  S
C599        C600   1.400       .  A
C599        H603   1.084       .  S
C600        C604   1.484   1_554  S
C600        C601   1.410   1_554  A
C601        C602   1.405       .  A
C601       Br613   1.919       .  S
C602        H605   1.083       .  S
C604        C606   1.403       .  A
C604        C610   1.406   1_556  A
C606        C607   1.402   1_455  A
C606        H611   1.084       .  S
C607        C608   1.415       .  A
C607       Br615   1.920       .  S
C608        C609   1.408   1_556  A
C609        C610   1.400   1_655  A
C609        H612   1.083       .  S
C610       Br616   1.918       .  S
C617        C618   1.411       .  A
C617        C622   1.403       .  A
C618        C619   1.399       .  A
C618       Br634   1.919       .  S
C619        C620   1.402       .  A
C619        H623   1.083       .  S
C620        C624   1.485       .  S
C620        C621   1.412       .  A
C621        C622   1.402       .  A
C621       Br633   1.919       .  S
C622        H625   1.083       .  S
C624        C626   1.404       .  A
C624        C630   1.412       .  A
C626        C627   1.400       .  A
C626        H631   1.083       .  S
C627        C628   1.409       .  A
C627       Br635   1.919       .  S
C628        C629   1.402       .  A
C629        C630   1.399       .  A
C629        H632   1.083       .  S
C630       Br636   1.919       .  S
C637        C638   1.411   1_554  A
C637        C642   1.405       .  A
C638        C639   1.396       .  A
C638       Br654   1.922       .  S
C639        C640   1.406   1_556  A
C639        H643   1.082       .  S
C640        C644   1.497       .  S
C640        C641   1.417       .  A
C641        C642   1.401       .  A
C641       Br653   1.923       .  S
C642        H645   1.084       .  S
C644        C646   1.407       .  A
C644        C650   1.418   1_554  A
C646        C647   1.398       .  A
C646        H651   1.082       .  S
C647        C648   1.409       .  A
C647       Br655   1.921       .  S
C648        C649   1.402   1_554  A
C649        C650   1.399       .  A
C649        H652   1.084       .  S
C650       Br656   1.924       .  S
C657        C658   1.411       .  A
C657        C662   1.407       .  A
C658        C659   1.397       .  A
C658       Br674   1.921       .  S
C659        C660   1.405       .  A
C659        H663   1.083       .  S
C660        C664   1.490       .  S
C660        C661   1.412       .  A
C661        C662   1.400       .  A
C661       Br673   1.920       .  S
C662        H665   1.083       .  S
C664        C666   1.407       .  A
C664        C670   1.414       .  A
C666        C667   1.401       .  A
C666        H671   1.083       .  S
C667        C668   1.408       .  A
C667       Br675   1.918       .  S
C668        C669   1.401       .  A
C669        C670   1.398       .  A
C669        H672   1.084       .  S
C670       Br676   1.922       .  S
C677        C678   1.407       .  A
C677        C682   1.403   1_554  A
C678        C679   1.399       .  A
C678       Br694   1.918       .  S
C679        C680   1.405       .  A
C679        H683   1.083       .  S
C680        C684   1.480       .  S
C680        C681   1.409   1_554  A
C681        C682   1.398       .  A
C681       Br693   1.920       .  S
C682        H685   1.083       .  S
C684        C686   1.404   1_554  A
C684        C690   1.408       .  A
C686        C687   1.399       .  A
C686        H691   1.083       .  S
C687        C688   1.408   1_556  A
C687       Br695   1.919       .  S
C688        C689   1.404       .  A
C689        C690   1.399       .  A
C689        H692   1.083       .  S
C690       Br696   1.919       .  S
C697        C698   1.408       .  A
C697        C702   1.401       .  A
C698        C699   1.399       .  A
C698       Br714   1.921       .  S
C699        C700   1.407       .  A
C699        H703   1.082       .  S
C700        C704   1.496       .  S
C700        C701   1.418       .  A
C701        C702   1.400       .  A
C701       Br713   1.923       .  S
C702        H705   1.084       .  S
C704        C706   1.407       .  A
C704        C710   1.416       .  A
C706        C707   1.399       .  A
C706        H711   1.082       .  S
C707        C708   1.411       .  A
C707       Br715   1.921       .  S
C708        C709   1.405       .  A
C709        C710   1.400       .  A
C709        H712   1.084       .  S
C710       Br716   1.922       .  S
C717        C718   1.415       .  A
C717        C722   1.405       .  A
C718        C719   1.402       .  A
C718       Br734   1.921       .  S
C719        C720   1.404       .  A
C719        H723   1.083       .  S
C720        C724   1.488       .  S
C720        C721   1.411       .  A
C721        C722   1.400       .  A
C721       Br733   1.920       .  S
C722        H725   1.083       .  S
C724        C726   1.405       .  A
C724        C730   1.411       .  A
C726        C727   1.398       .  A
C726        H731   1.083       .  S
C727        C728   1.408       .  A
C727       Br735   1.919       .  S
C728        C729   1.405       .  A
C729        C730   1.403       .  A
C729        H732   1.083       .  S
C730       Br736   1.919       .  S
C737        C738   1.408   1_556  A
C737        C742   1.402       .  A
C738        C739   1.398       .  A
C738       Br754   1.919       .  S
C739        C740   1.404   1_554  A
C739        H743   1.083       .  S
C740        C744   1.485   1_556  S
C740        C741   1.412       .  A
C741        C742   1.400       .  A
C741       Br753   1.919       .  S
C742        H745   1.083       .  S
C744        C746   1.403   1_554  A
C744        C750   1.412       .  A
C746        C747   1.399       .  A
C746        H751   1.083       .  S
C747        C748   1.412   1_556  A
C747       Br755   1.919       .  S
C748        C749   1.403       .  A
C749        C750   1.400       .  A
C749        H752   1.083       .  S
C750       Br756   1.919       .  S
C757        C758   1.411       .  A
C757        C762   1.401   1_554  A
C758        C759   1.400       .  A
C758       Br774   1.922       .  S
C759        C760   1.408       .  A
C759        H763   1.082       .  S
C760        C764   1.496       .  S
C760        C761   1.418   1_554  A
C761        C762   1.397       .  A
C761       Br773   1.923       .  S
C762        H765   1.084       .  S
C764        C766   1.407   1_554  A
C764        C770   1.417       .  A
C766        C767   1.397       .  A
C766        H771   1.082       .  S
C767        C768   1.409   1_556  A
C767       Br775   1.921       .  S
C768        C769   1.403       .  A
C769        C770   1.400       .  A
C769        H772   1.084       .  S
C770       Br776   1.922       .  S
C777        C778   1.411       .  A
C777        C782   1.405       .  A
C778        C779   1.398       .  A
C778       Br794   1.921       .  S
C779        C780   1.400       .  A
C779        H783   1.084       .  S
C780        C784   1.475       .  S
C780        C781   1.407       .  A
C781        C782   1.402       .  A
C781       Br793   1.919       .  S
C782        H785   1.083       .  S
C784        C786   1.400       .  A
C784        C790   1.406       .  A
C786        C787   1.399       .  A
C786        H791   1.084       .  S
C787        C788   1.413       .  A
C787       Br795   1.922       .  S
C788        C789   1.405       .  A
C789        C790   1.400       .  A
C789        H792   1.083       .  S
C790       Br796   1.918       .  S
C797        C798   1.410       .  A
C797        C802   1.402       .  A
C798        C799   1.401       .  A
C798       Br814   1.921       .  S
C799        C800   1.404       .  A
C799        H803   1.083       .  S
C800        C804   1.481       .  S
C800        C801   1.408       .  A
C801        C802   1.400       .  A
C801       Br813   1.917       .  S
C802        H805   1.084       .  S
C804        C806   1.402       .  A
C804        C810   1.407       .  A
C806        C807   1.401       .  A
C806        H811   1.084       .  S
C807        C808   1.413       .  A
C807       Br815   1.920       .  S
C808        C809   1.406       .  A
C809        C810   1.402       .  A
C809        H812   1.083       .  S
C810       Br816   1.918       .  S
C817        C818   1.413       .  A
C817        C822   1.408       .  A
C818        C819   1.404       .  A
C818       Br834   1.919       .  S
C819        C820   1.403       .  A
C819        H823   1.083       .  S
C820        C824   1.484       .  S
C820        C821   1.407       .  A
C821        C822   1.402       .  A
C821       Br833   1.918       .  S
C822        H825   1.083       .  S
C824        C826   1.403   1_545  A
C824        C830   1.408   1_545  A
C826        C827   1.403       .  A
C826        H831   1.083   1_565  S
C827        C828   1.413       .  A
C827       Br835   1.920       .  S
C828        C829   1.405       .  A
C829        C830   1.401       .  A
C829        H832   1.083       .  S
C830       Br836   1.917   1_565  S
C837        C838   1.413       .  A
C837        C842   1.406       .  A
C838        C839   1.399       .  A
C838       Br854   1.921       .  S
C839        C840   1.401       .  A
C839        H843   1.084       .  S
C840        C844   1.478       .  S
C840        C841   1.407       .  A
C841        C842   1.401       .  A
C841       Br853   1.917       .  S
C842        H845   1.084       .  S
C844        C846   1.402       .  A
C844        C850   1.407       .  A
C846        C847   1.400       .  A
C846        H851   1.084       .  S
C847        C848   1.411       .  A
C847       Br855   1.921       .  S
C848        C849   1.406       .  A
C849        C850   1.399       .  A
C849        H852   1.083       .  S
C850       Br856   1.918       .  S
C857        C858   1.414       .  A
C857        C862   1.406       .  A
C858        C859   1.399       .  A
C858       Br874   1.918       .  S
C859        C860   1.401       .  A
C859        H863   1.084       .  S
C860        C864   1.478       .  S
C860        C861   1.408       .  A
C861        C862   1.398       .  A
C861       Br873   1.920       .  S
C862        H865   1.083       .  S
C864        C866   1.403       .  A
C864        C870   1.407       .  A
C866        C867   1.402       .  A
C866        H871   1.084       .  S
C867        C868   1.412       .  A
C867       Br875   1.919       .  S
C868        C869   1.407       .  A
C869        C870   1.396       .  A
C869        H872   1.084       .  S
C870       Br876   1.921       .  S
C877        C878   1.412       .  A
C877        C882   1.405   1_554  A
C878        C879   1.398       .  A
C878       Br894   1.921       .  S
C879        C880   1.401       .  A
C879        H883   1.084       .  S
C880        C884   1.476   1_554  S
C880        C881   1.407   1_554  A
C881        C882   1.399       .  A
C881       Br893   1.919       .  S
C882        H885   1.083       .  S
C884        C886   1.401       .  A
C884        C890   1.407   1_546  A
C886        C887   1.398   1_545  A
C886        H891   1.084       .  S
C887        C888   1.412       .  A
C887       Br895   1.920       .  S
C888        C889   1.406   1_556  A
C889        C890   1.399       .  A
C889        H892   1.083       .  S
C890       Br896   1.919   1_565  S
C897        C898   1.414       .  A
C897        C902   1.406       .  A
C898        C899   1.399       .  A
C898       Br914   1.917       .  S
C899        C900   1.401       .  A
C899        H903   1.084       .  S
C900        C904   1.474       .  S
C900        C901   1.405       .  A
C901        C902   1.396       .  A
C901       Br913   1.919       .  S
C902        H905   1.084       .  S
C904        C906   1.402       .  A
C904        C910   1.405       .  A
C906        C907   1.399       .  A
C906        H911   1.084       .  S
C907        C908   1.413       .  A
C907       Br915   1.917       .  S
C908        C909   1.407       .  A
C909        C910   1.395       .  A
C909        H912   1.084       .  S
C910       Br916   1.919       .  S
C917        C918   1.415       .  A
C917        C922   1.406       .  A
C918        C919   1.399       .  A
C918       Br934   1.921       .  S
C919        C920   1.401       .  A
C919        H923   1.084       .  S
C920        C924   1.476       .  S
C920        C921   1.406       .  A
C921        C922   1.398       .  A
C921       Br933   1.919       .  S
C922        H925   1.083       .  S
C924        C926   1.400       .  A
C924        C930   1.407       .  A
C926        C927   1.397       .  A
C926        H931   1.084       .  S
C927        C928   1.412       .  A
C927       Br935   1.919       .  S
C928        C929   1.406       .  A
C929        C930   1.400       .  A
C929        H932   1.084       .  S
C930       Br936   1.919       .  S
C937        C938   1.414       .  A
C937        C942   1.405       .  A
C938        C939   1.401   1_655  A
C938       Br954   1.921       .  S
C939        C940   1.401       .  A
C939        H943   1.084       .  S
C940        C944   1.480       .  S
C940        C941   1.407       .  A
C941        C942   1.400   1_455  A
C941       Br953   1.918       .  S
C942        H945   1.084       .  S
C944        C946   1.401       .  A
C944        C950   1.407       .  A
C946        C947   1.400       .  A
C946        H951   1.084       .  S
C947        C948   1.413       .  A
C947       Br955   1.921       .  S
C948        C949   1.405       .  A
C949        C950   1.401       .  A
C949        H952   1.084       .  S
C950       Br956   1.918       .  S
C957        C958   1.418       .  A
C957        C962   1.410       .  A
C958        C959   1.403       .  A
C958       Br974   1.921       .  S
C959        C960   1.401       .  A
C959        H963   1.084       .  S
C960        C964   1.480       .  S
C960        C961   1.405       .  A
C961        C962   1.398       .  A
C961       Br973   1.920       .  S
C962        H965   1.083       .  S
C964        C966   1.402       .  A
C964        C970   1.410       .  A
C966        C967   1.400       .  A
C966        H971   1.083       .  S
C967        C968   1.410       .  A
C967       Br975   1.920       .  S
C968        C969   1.403       .  A
C969        C970   1.399       .  A
C969        H972   1.084       .  S
C970       Br976   1.919       .  S
C977        C978   1.415       .  A
C977        C982   1.406       .  A
C978        C979   1.399       .  A
C978       Br994   1.921       .  S
C979        C980   1.399       .  A
C979        H983   1.084       .  S
C980        C984   1.475       .  S
C980        C981   1.407       .  A
C981        C982   1.399       .  A
C981       Br993   1.919       .  S
C982        H985   1.083       .  S
C984        C986   1.400       .  A
C984        C990   1.408       .  A
C986        C987   1.397       .  A
C986        H991   1.084       .  S
C987        C988   1.411       .  A
C987       Br995   1.919       .  S
C988        C989   1.404       .  A
C989        C990   1.400       .  A
C989        H992   1.084       .  S
C990       Br996   1.917       .  S
C997        C998   1.411       .  A
C997       C1002   1.404   1_556  A
C998        C999   1.403   1_655  A
C998      Br1014   1.920       .  S
C999       C1000   1.403       .  A
C999       H1003   1.083       .  S
C1000      C1004   1.479       .  S
C1000      C1001   1.407   1_556  A
C1001      C1002   1.397   1_455  A
C1001     Br1013   1.919       .  S
C1002      H1005   1.083       .  S
C1004      C1006   1.400   1_556  A
C1004      C1010   1.407       .  A
C1006      C1007   1.401       .  A
C1006      H1011   1.084       .  S
C1007      C1008   1.416   1_554  A
C1007     Br1015   1.921       .  S
C1008      C1009   1.407       .  A
C1009      C1010   1.400       .  A
C1009      H1012   1.083       .  S
C1010     Br1016   1.919       .  S
C1017      C1018   1.411       .  A
C1017      C1022   1.405       .  A
C1018      C1019   1.399       .  A
C1018     Br1034   1.920       .  S
C1019      C1020   1.402       .  A
C1019      H1023   1.084       .  S
C1020      C1024   1.478       .  S
C1020      C1021   1.407       .  A
C1021      C1022   1.400       .  A
C1021     Br1033   1.918       .  S
C1022      H1025   1.084       .  S
C1024      C1026   1.399       .  A
C1024      C1030   1.407       .  A
C1026      C1027   1.398       .  A
C1026      H1031   1.084       .  S
C1027      C1028   1.415       .  A
C1027     Br1035   1.922       .  S
C1028      C1029   1.406       .  A
C1029      C1030   1.401       .  A
C1029      H1032   1.083       .  S
C1030     Br1036   1.917       .  S
C1037      C1038   1.416       .  A
C1037      C1042   1.408       .  A
C1038      C1039   1.399       .  A
C1038     Br1054   1.919       .  S
C1039      C1040   1.400       .  A
C1039      H1043   1.084       .  S
C1040      C1044   1.479       .  S
C1040      C1041   1.408       .  A
C1041      C1042   1.400       .  A
C1041     Br1053   1.920       .  S
C1042      H1045   1.083       .  S
C1044      C1046   1.403       .  A
C1044      C1050   1.407       .  A
C1046      C1047   1.402       .  A
C1046      H1051   1.084       .  S
C1047      C1048   1.414       .  A
C1047     Br1055   1.920       .  S
C1048      C1049   1.405       .  A
C1049      C1050   1.397       .  A
C1049      H1052   1.084       .  S
C1050     Br1056   1.920       .  S
C1057      C1058   1.414       .  A
C1057      C1062   1.406       .  A
C1058      C1059   1.401       .  A
C1058     Br1074   1.919       .  S
C1059      C1060   1.402       .  A
C1059      H1063   1.084       .  S
C1060      C1064   1.482       .  S
C1060      C1061   1.408       .  A
C1061      C1062   1.400       .  A
C1061     Br1073   1.919       .  S
C1062      H1065   1.084       .  S
C1064      C1066   1.401   1_545  A
C1064      C1070   1.407   1_545  A
C1066      C1067   1.402       .  A
C1066      H1071   1.084   1_565  S
C1067      C1068   1.417       .  A
C1067     Br1075   1.921       .  S
C1068      C1069   1.407       .  A
C1069      C1070   1.400       .  A
C1069      H1072   1.083       .  S
C1070     Br1076   1.919   1_565  S
C1077      C1078   1.413       .  A
C1077      C1082   1.407       .  A
C1078      C1079   1.399       .  A
C1078     Br1094   1.918       .  S
C1079      C1080   1.400       .  A
C1079      H1083   1.084       .  S
C1080      C1084   1.474       .  S
C1080      C1081   1.405       .  A
C1081      C1082   1.397       .  A
C1081     Br1093   1.919       .  S
C1082      H1085   1.083       .  S
C1084      C1086   1.401       .  A
C1084      C1090   1.407       .  A
C1086      C1087   1.398       .  A
C1086      H1091   1.084       .  S
C1087      C1088   1.412       .  A
C1087     Br1095   1.921       .  S
C1088      C1089   1.404       .  A
C1089      C1090   1.397       .  A
C1089      H1092   1.084       .  S
C1090     Br1096   1.918       .  S
C1097      C1098   1.415       .  A
C1097      C1102   1.406       .  A
C1098      C1099   1.399       .  A
C1098     Br1114   1.921       .  S
C1099      C1100   1.401       .  A
C1099      H1103   1.084       .  S
C1100      C1104   1.477       .  S
C1100      C1101   1.407       .  A
C1101      C1102   1.398       .  A
C1101     Br1113   1.920       .  S
C1102      H1105   1.083       .  S
C1104      C1106   1.401       .  A
C1104      C1110   1.406       .  A
C1106      C1107   1.399       .  A
C1106      H1111   1.084       .  S
C1107      C1108   1.414       .  A
C1107     Br1115   1.919       .  S
C1108      C1109   1.406       .  A
C1109      C1110   1.397       .  A
C1109      H1112   1.083       .  S
C1110     Br1116   1.920       .  S
C1117      C1118   1.412       .  A
C1117      C1122   1.403   1_556  A
C1118      C1119   1.398       .  A
C1118     Br1134   1.921       .  S
C1119      C1120   1.400       .  A
C1119      H1123   1.084       .  S
C1120      C1124   1.473       .  S
C1120      C1121   1.407   1_556  A
C1121      C1122   1.397       .  A
C1121     Br1133   1.919       .  S
C1122      H1125   1.084       .  S
C1124      C1126   1.400   1_556  A
C1124      C1130   1.406   1_545  A
C1126      C1127   1.397   1_545  A
C1126      H1131   1.084       .  S
C1127      C1128   1.414   1_554  A
C1127     Br1135   1.922       .  S
C1128      C1129   1.406       .  A
C1129      C1130   1.398       .  A
C1129      H1132   1.083       .  S
C1130     Br1136   1.919   1_565  S
