geometry optimzed in LAMMPS
_audit_creation_date              2020-11-30 
_audit_creation_method            'lammps2cif' 
_symmetry_space_group_name_H-M    'P1' 
_symmetry_Int_Tables_number       1 
_symmetry_cell_setting            triclinic 
loop_ 
_symmetry_equiv_pos_as_xyz 
  x,y,z 
_cell_length_a                    24.55034676 
_cell_length_b                    24.38347321812397 
_cell_length_c                    42.20597181138392 
_cell_angle_alpha                 89.00473060050398 
_cell_angle_beta                  89.13561096965815 
_cell_angle_gamma                 83.70458460658176 
loop_ 
_atom_site_label 
_atom_site_type_symbol 
_atom_site_fract_x 
_atom_site_fract_y 
_atom_site_fract_z 
_atom_site_charge 
O1          O  0.95763478  0.97558027  0.42845844    -0.79600
O2          O  0.00882720  0.07252463  0.04972793    -0.79600
O3          O  0.90601086  0.01856629  0.02937450    -0.79700
O4          O  0.99680008  0.09695943  0.47772036    -0.79600
O5          O  0.95791689  0.98222850  0.06692462    -0.79700
O6          O  0.02885941  0.05065489  0.43537660    -0.79600
O7          O  0.07032548  0.11572044  0.02309360    -0.79600
O8          O  0.90430760  0.01526502  0.46558428    -0.79700
C9          C  0.91296835  0.00310295  0.43696285     1.10100
C10         C  0.03500849  0.11548733  0.04522637     1.10000
C11         C  0.91187882  0.00519190  0.05809108     1.10100
C12         C  0.00501529  0.09423379  0.44802477     1.10000
O13         O  0.10897681  0.96479574  0.46325960    -0.79600
O14         O  0.03906936  0.90588911  0.03865851    -0.79700
O15         O  0.94294182  0.89824610  0.46716564    -0.79600
O16         O  0.10863057  0.00883555  0.03475704    -0.79600
O17         O  0.06625279  0.98499874  0.07880073    -0.79700
O18         O  0.03221418  0.89115106  0.45873312    -0.79600
O19         O  0.10767425  0.05188634  0.47351360    -0.79600
O20         O  0.95047257  0.90156844  0.03120807    -0.79700
Co21       Co  0.03180308  0.97070306  0.44960401     1.51500
Co22       Co  0.02671795  0.98724625  0.04074333     1.51700
Co23       Co  0.92984422  0.96112841  0.99831171     1.51600
Co24       Co  0.04699036  0.05109116  0.50591907     1.51500
O25         O  0.00521594  0.98744036  0.49489141    -1.41600
C26         C  0.13201912  0.00842876  0.46175121     1.10000
C27         C  0.99679390  0.88040705  0.04158769     1.10100
C28         C  0.98695437  0.87121743  0.45702446     1.10000
C29         C  0.11017556  0.99385267  0.06447424     1.10000
N30         N  0.97825316  0.41425203  0.24921032    -0.36100
N31         N  0.98044836  0.50090334  0.20147803    -0.56700
N32         N  0.96503102  0.58310633  0.25128525    -0.36100
N33         N  0.96817118  0.49537153  0.29923273    -0.56700
C34         C  0.99834752  0.38559312  0.22358931     0.27500
C35         C  0.99273066  0.38286421  0.27516335     0.27500
C36         C  0.97649561  0.61544124  0.22614506     0.27500
C37         C  0.97010773  0.61242825  0.27788386     0.27500
C38         C  0.97813632  0.45759989  0.18210935     0.36100
C39         C  0.97119211  0.54696650  0.18321733     0.36100
C40         C  0.96002976  0.44980485  0.31665063     0.36100
C41         C  0.95283011  0.53933498  0.31769057     0.36100
C42         C  0.02662708  0.33604429  0.23334931    -0.21400
C43         C  0.02350929  0.33451175  0.26587285    -0.21400
C44         C  0.98755329  0.66647043  0.23687121    -0.21400
C45         C  0.98364526  0.66454338  0.26944659    -0.21400
C46         C  0.96740833  0.47617854  0.15139760    -0.22400
C47         C  0.96357504  0.53272809  0.15202747    -0.22400
C48         C  0.93888458  0.46498425  0.34627123    -0.22400
C49         C  0.93494557  0.52164179  0.34704256    -0.22400
C50         C  0.98938672  0.40171970  0.19157380    -0.17800
C51         C  0.97538800  0.39503204  0.30671371    -0.17800
C52         C  0.95992321  0.59458044  0.30940022    -0.17800
C53         C  0.97421712  0.60130437  0.19376553    -0.17800
H54         H  0.04753677  0.30432731  0.21855628     0.15100
H55         H  0.04172957  0.30130068  0.28092387     0.15100
H56         H  0.99700641  0.70171962  0.22271727     0.15100
H57         H  0.98940662  0.69809269  0.28507613     0.15100
H58         H  0.96361834  0.45176812  0.13055039     0.13400
H59         H  0.95666071  0.56002842  0.13166929     0.13400
H60         H  0.92797805  0.43832424  0.36554445     0.13400
H61         H  0.92090956  0.54681952  0.36703760     0.13400
H62         H  0.95047989  0.44972462  0.24878012     0.26700
H63         H  0.94962872  0.54520027  0.25017830     0.26700
N64         N  0.58828518  0.03247496  0.24953770    -0.36100
N65         N  0.51056547  0.03023972  0.30094604    -0.56700
N66         N  0.42900531  0.00457824  0.25438682    -0.36100
N67         N  0.50720124  0.01580195  0.20247806    -0.56700
C68         C  0.61485556  0.05370192  0.27341403     0.27500
C69         C  0.61296670  0.04685858  0.22234461     0.27500
C70         C  0.39708492  0.01336681  0.28073281     0.27500
C71         C  0.39527668  0.00519800  0.22910994     0.27500
C72         C  0.55705426  0.02742955  0.31803599     0.36100
C73         C  0.47071677  0.01618076  0.32088199     0.36100
C74         C  0.55334428  0.00720120  0.18444711     0.36100
C75         C  0.46718196  0.99472594  0.18650404     0.36100
C76         C  0.65549895  0.08362002  0.26127368    -0.21400
C77         C  0.65427446  0.07933061  0.22890078    -0.21400
C78         C  0.34244788  0.01862817  0.27219489    -0.21400
C79         C  0.34126866  0.01388655  0.23977344    -0.21400
C80         C  0.54653581  0.01217081  0.34911236    -0.22400
C81         C  0.49158915  0.00576585  0.35100985    -0.22400
C82         C  0.54263904  0.98091301  0.15679136    -0.22400
C83         C  0.48797131  0.97318572  0.15802592    -0.22400
C84         C  0.60808626  0.04001227  0.30564410    -0.17800
C85         C  0.60434795  0.02435937  0.19258662    -0.17800
C86         C  0.41186595  0.99617467  0.19691399    -0.17800
C87         C  0.41552895  0.01393673  0.31246592    -0.17800
H88         H  0.68440416  0.10443520  0.27446607     0.15100
H89         H  0.68213915  0.09611746  0.21215534     0.15100
H90         H  0.30692517  0.02526188  0.28772435     0.15100
H91         H  0.30444647  0.01684951  0.22583509     0.15100
H92         H  0.57510893  0.00617116  0.36843400     0.13400
H93         H  0.46972450  0.99374893  0.37202293     0.13400
H94         H  0.57114314  0.96834482  0.13780349     0.13400
H95         H  0.46632589  0.95300021  0.14023646     0.13400
H96         H  0.56197078  0.00195527  0.25190265     0.26700
H97         H  0.47103529  0.99386449  0.25408690     0.26700
C98         C  0.29737941  0.96683212  0.15272429     0.30300
C99         C  0.24697828  0.94628861  0.14797063    -0.36100
C100        C  0.21947354  0.96375766  0.12004219     0.16300
C101        C  0.24027290  0.99848149  0.09789253     0.22100
C102        C  0.29102517  0.01880259  0.10256339    -0.34200
C103        C  0.31825944  0.00184953  0.13079196     0.16200
O104        O  0.32785167  0.95886422  0.17827046    -0.26200
C105        C  0.36902720  0.98925836  0.17286092     0.06000
C106        C  0.36507569  0.01684240  0.14357251    -0.31100
O107        O  0.20582091  0.01206467  0.07444931    -0.22900
C108        C  0.16232391  0.98586888  0.08187787    -0.02900
C109        C  0.16873624  0.95525997  0.10996774    -0.17300
H110        H  0.22940170  0.92011901  0.16543763     0.20700
H111        H  0.30719209  0.04740675  0.08594407     0.19000
H112        H  0.39168978  0.04557898  0.13376104     0.19000
H113        H  0.13923938  0.93189838  0.12189729     0.14800
C114        C  0.24593020  0.98345723  0.41109096     0.30300
C115        C  0.28102500  0.95219294  0.39006168    -0.36100
C116        C  0.31646651  0.98147293  0.37169719     0.16300
C117        C  0.31763735  0.03774803  0.37393677     0.22100
C118        C  0.28257558  0.06909437  0.39508896    -0.34200
C119        C  0.24694419  0.03972659  0.41345247     0.16200
O120        O  0.20716138  0.96483309  0.42889110    -0.26200
C121        C  0.18305331  0.00957156  0.44309131     0.06000
C122        C  0.20618414  0.05743622  0.43444815    -0.31100
O123        O  0.35300697  0.05676416  0.35377906    -0.22900
C124        C  0.37445609  0.01203097  0.33844667    -0.02900
C125        C  0.35331491  0.96408092  0.34857669    -0.17300
H126        H  0.27979992  0.90823938  0.38761279     0.20700
H127        H  0.28226811  0.11339004  0.39662389     0.19000
H128        H  0.19286998  0.09943785  0.44124210     0.19000
H129        H  0.36321853  0.92268797  0.33981183     0.14800
C130        C  0.81331905  0.99956939  0.11889308     0.30300
C131        C  0.79242867  0.98541412  0.14870054    -0.36100
C132        C  0.73583058  0.99874491  0.15341536     0.16300
C133        C  0.70186201  0.02401686  0.13044064     0.22100
C134        C  0.72268629  0.03772473  0.10055879    -0.34200
C135        C  0.77934509  0.02477759  0.09590830     0.16200
O136        O  0.86495011  0.99079712  0.10921862    -0.26200
C137        C  0.86400683  0.01099926  0.07969643     0.06000
C138        C  0.81182612  0.03256617  0.07021592    -0.31100
O139        O  0.65064285  0.03491582  0.14049609    -0.22900
C140        C  0.65192205  0.01648400  0.17035672    -0.02900
C141        C  0.70377387  0.99314245  0.17951102    -0.17300
H142        H  0.81852937  0.96593503  0.16705231     0.20700
H143        H  0.69668398  0.05783540  0.08235716     0.19000
H144        H  0.79943428  0.05009028  0.04735859     0.19000
H145        H  0.71625079  0.97635103  0.20252205     0.14800
C146        C  0.70887780  0.04507789  0.36390332     0.30300
C147        C  0.73033309  0.05805054  0.39305646    -0.36100
C148        C  0.78602778  0.04055170  0.39754287     0.16300
C149        C  0.81865802  0.01195430  0.37505516     0.22100
C150        C  0.79724380  0.99913394  0.34578428    -0.34200
C151        C  0.74146109  0.01677838  0.34128751     0.16200
O152        O  0.65763742  0.05695443  0.35483764    -0.26200
C153        C  0.65736732  0.03611517  0.32594007     0.06000
C154        C  0.70841098  0.01044971  0.31641582    -0.31100
O155        O  0.86883065  0.99682047  0.38519347    -0.22900
C156        C  0.86815391  0.01633136  0.41448152    -0.02900
C157        C  0.81780460  0.04404661  0.42327128    -0.17300
H158        H  0.70517851  0.07960444  0.41117971     0.20700
H159        H  0.82201250  0.97620620  0.32800490     0.19000
H160        H  0.71937227  0.98997718  0.29429689     0.19000
H161        H  0.80559291  0.06171551  0.44598658     0.14800
C162        C  0.01671941  0.31364814  0.12621687     0.30300
C163        C  0.04154305  0.29508516  0.09754557    -0.36100
C164        C  0.02923877  0.24329951  0.08735823     0.16300
C165        C  0.99463371  0.21209781  0.10411352     0.22100
C166        C  0.96960836  0.23080714  0.13262854    -0.34200
C167        C  0.98220756  0.28229653  0.14290902     0.16200
O168        O  0.02377021  0.35991912  0.14071889    -0.26200
C169        C  0.99349655  0.35803352  0.16712236     0.06000
C170        C  0.96668807  0.31067388  0.16962286    -0.31100
O171        O  0.99078145  0.16386859  0.09107737    -0.22900
C172        C  0.02337149  0.16399488  0.06560176    -0.02900
C173        C  0.04825445  0.21247191  0.06203762    -0.17300
H174        H  0.06937540  0.31880834  0.08444469     0.20700
H175        H  0.94309819  0.20633613  0.14623232     0.19000
H176        H  0.94001932  0.29878851  0.18859629     0.19000
H177        H  0.07749550  0.22266028  0.04401352     0.14800
C178        C  0.97334968  0.19270019  0.38779169     0.30300
C179        C  0.95889013  0.21183210  0.35718638    -0.36100
C180        C  0.96568101  0.26721222  0.35036772     0.16300
C181        C  0.98591597  0.30139362  0.37195056     0.22100
C182        C  0.99922288  0.28260992  0.40282428    -0.34200
C183        C  0.99164932  0.22739925  0.40983550     0.16200
O184        O  0.97403373  0.14143723  0.39849536    -0.26200
C185        C  0.99168736  0.14364740  0.42805133     0.06000
C186        C  0.00290083  0.19610390  0.43648373    -0.31100
O187        O  0.99176820  0.35078587  0.35985168    -0.22900
C188        C  0.97465182  0.34842330  0.33012774    -0.02900
C189        C  0.95733775  0.29744655  0.32317356    -0.17300
H190        H  0.94461710  0.18505193  0.33965505     0.20700
H191        H  0.01541254  0.30883808  0.41997235     0.19000
H192        H  0.02018780  0.20842586  0.45835582     0.19000
H193        H  0.94182661  0.28425194  0.30100953     0.14800
C194        C  0.96695656  0.76990456  0.09021860     0.30300
C195        C  0.93180372  0.73783710  0.10699461    -0.36100
C196        C  0.95587838  0.70321946  0.13094425     0.16300
C197        C  0.01094278  0.69995708  0.13780579     0.22100
C198        C  0.04621879  0.73199996  0.12092494    -0.34200
C199        C  0.02201447  0.76698164  0.09702111     0.16200
O200        O  0.95208149  0.80778452  0.06850142    -0.26200
C201        C  0.99805503  0.82963498  0.06109336     0.06000
C202        C  0.04309351  0.80570152  0.07803665    -0.31100
O203        O  0.02463846  0.66467939  0.16118165    -0.22900
C204        C  0.97767384  0.64530868  0.16936133    -0.02900
C205        C  0.93349313  0.66796102  0.15145521    -0.17300
H206        H  0.88841216  0.74059825  0.10215150     0.20700
H207        H  0.08928884  0.73043818  0.12640205     0.19000
H208        H  0.08432798  0.81752735  0.07788126     0.19000
H209        H  0.89134660  0.65889298  0.15302292     0.14800
C210        C  0.99554010  0.68583981  0.36743573     0.30300
C211        C  0.03127409  0.71479099  0.38470180    -0.36100
C212        C  0.00666051  0.75332155  0.40633302     0.16300
C213        C  0.95064015  0.76285143  0.41069987     0.22100
C214        C  0.91482276  0.73362888  0.39350949    -0.34200
C215        C  0.93947729  0.69501103  0.37183002     0.16200
O216        O  0.00987237  0.64936584  0.34527205    -0.26200
C217        C  0.96247200  0.63462597  0.33534747     0.06000
C218        C  0.91717097  0.66173704  0.35096832    -0.31100
O219        O  0.93640475  0.80351094  0.43050738    -0.22900
C220        C  0.98392800  0.82014357  0.43907555    -0.02900
C221        C  0.02900510  0.79015758  0.42479169    -0.17300
H222        H  0.07521883  0.70859923  0.38098414     0.20700
H223        H  0.87077205  0.74146632  0.39626349     0.19000
H224        H  0.87425717  0.65800675  0.34712578     0.19000
H225        H  0.07176393  0.79680321  0.42628877     0.14800
O226        O  0.95763532  0.97557915  0.92845852    -0.79600
O227        O  0.00882754  0.07252266  0.54972875    -0.79600
O228        O  0.90601161  0.01856484  0.52937470    -0.79700
O229        O  0.99680066  0.09695909  0.97771989    -0.79600
O230        O  0.95791736  0.98222577  0.56692453    -0.79700
O231        O  0.02886012  0.05065379  0.93537643    -0.79600
O232        O  0.07032491  0.11571966  0.52309435    -0.79600
O233        O  0.90430783  0.01526501  0.96558388    -0.79700
C234        C  0.91296877  0.00310213  0.93696258     1.10100
C235        C  0.03500845  0.11548569  0.54522737     1.10000
C236        C  0.91187934  0.00518948  0.55809112     1.10100
C237        C  0.00501602  0.09423291  0.94802435     1.10000
O238        O  0.10897728  0.96479511  0.96326015    -0.79600
O239        O  0.03906996  0.90588746  0.53865745    -0.79700
O240        O  0.94294214  0.89824610  0.96716622    -0.79600
O241        O  0.10863045  0.00883472  0.53475692    -0.79600
O242        O  0.06625339  0.98499586  0.57880046    -0.79700
O243        O  0.03221463  0.89115055  0.95873420    -0.79600
O244        O  0.10767490  0.05188592  0.97351343    -0.79600
O245        O  0.95047313  0.90156673  0.53120744    -0.79700
Co246      Co  0.03180359  0.97070229  0.94960437     1.51500
Co247      Co  0.02671827  0.98724452  0.54074317     1.51700
Co248      Co  0.92984436  0.96112762  0.49831157     1.51600
Co249      Co  0.04699082  0.05109151  0.00591884     1.51500
O250        O  0.00521603  0.98744074  0.99489156    -1.41600
C251        C  0.13201979  0.00842799  0.96175147     1.10000
C252        C  0.99679465  0.88040522  0.54158673     1.10100
C253        C  0.98695479  0.87121711  0.95702536     1.10000
C254        C  0.11017588  0.99385062  0.56447394     1.10000
N255        N  0.97825385  0.41425206  0.74921077    -0.36100
N256        N  0.98044997  0.50090297  0.70147849    -0.56700
N257        N  0.96503361  0.58310520  0.75128575    -0.36100
N258        N  0.96817350  0.49537123  0.79923326    -0.56700
C259        C  0.99834795  0.38559288  0.72358974     0.27500
C260        C  0.99273146  0.38286401  0.77516376     0.27500
C261        C  0.97649881  0.61544071  0.72614553     0.27500
C262        C  0.97011158  0.61242759  0.77788439     0.27500
C263        C  0.97813723  0.45759962  0.68210980     0.36100
C264        C  0.97119417  0.54696623  0.68321781     0.36100
C265        C  0.96003165  0.44980474  0.81665116     0.36100
C266        C  0.95283324  0.53933476  0.81769117     0.36100
C267        C  0.02662738  0.33604398  0.73334972    -0.21400
C268        C  0.02350968  0.33451136  0.76587325    -0.21400
C269        C  0.98755781  0.66646926  0.73687170    -0.21400
C270        C  0.98365020  0.66454208  0.76944709    -0.21400
C271        C  0.96740940  0.47617838  0.65139807    -0.22400
C272        C  0.96357703  0.53272787  0.65202796    -0.22400
C273        C  0.93888695  0.46498432  0.84627185    -0.22400
C274        C  0.93494874  0.52164183  0.84704322    -0.22400
C275        C  0.98938687  0.40171936  0.69157424    -0.17800
C276        C  0.97538911  0.39503194  0.80671412    -0.17800
C277        C  0.95992697  0.59457990  0.80940074    -0.17800
C278        C  0.97421963  0.60130397  0.69376603    -0.17800
H279        H  0.04753682  0.30432692  0.71855665     0.15100
H280        H  0.04172964  0.30130004  0.78092424     0.15100
H281        H  0.99701167  0.70171825  0.72271779     0.15100
H282        H  0.98941259  0.69809103  0.78507669     0.15100
H283        H  0.96361896  0.45176810  0.63055086     0.13400
H284        H  0.95666329  0.56002824  0.63166977     0.13400
H285        H  0.92798027  0.43832441  0.86554509     0.13400
H286        H  0.92091342  0.54681976  0.86703832     0.13400
H287        H  0.95048098  0.44972454  0.74878063     0.26700
H288        H  0.94963154  0.54520125  0.75017892     0.26700
N289        N  0.58828527  0.03247581  0.74953709    -0.36100
N290        N  0.51056563  0.03024052  0.80094573    -0.56700
N291        N  0.42900543  0.00457787  0.75438675    -0.36100
N292        N  0.50720113  0.01580178  0.70247772    -0.56700
C293        C  0.61485600  0.05370271  0.77341332     0.27500
C294        C  0.61296723  0.04685831  0.72234392     0.27500
C295        C  0.39708515  0.01336582  0.78073285     0.27500
C296        C  0.39527666  0.00519706  0.72910995     0.27500
C297        C  0.55705457  0.02743095  0.81803554     0.36100
C298        C  0.47071723  0.01618125  0.82088183     0.36100
C299        C  0.55334396  0.00720131  0.68444656     0.36100
C300        C  0.46718156  0.99472631  0.68650366     0.36100
C301        C  0.65550013  0.08361969  0.76127279    -0.21400
C302        C  0.65427579  0.07932949  0.72889992    -0.21400
C303        C  0.34244809  0.01862618  0.77219504    -0.21400
C304        C  0.34126870  0.01388454  0.73977360    -0.21400
C305        C  0.54653648  0.01217245  0.84911199    -0.22400
C306        C  0.49158997  0.00576683  0.85100966    -0.22400
C307        C  0.54263822  0.98091402  0.65679059    -0.22400
C308        C  0.48797046  0.97318700  0.65802523    -0.22400
C309        C  0.60808656  0.04001361  0.80564349    -0.17800
C310        C  0.60434789  0.02435900  0.69258600    -0.17800
C311        C  0.41186572  0.99617447  0.69691390    -0.17800
C312        C  0.41552941  0.01393618  0.81246595    -0.17800
H313        H  0.68440579  0.10443449  0.77446507     0.15100
H314        H  0.68214101  0.09611531  0.71215439     0.15100
H315        H  0.30692542  0.02525930  0.78772455     0.15100
H316        H  0.30444642  0.01684690  0.72583533     0.15100
H317        H  0.57510979  0.00617331  0.86843356     0.13400
H318        H  0.46972571  0.99374973  0.87202284     0.13400
H319        H  0.57114200  0.96834638  0.63780247     0.13400
H320        H  0.46632471  0.95300229  0.64023557     0.13400
H321        H  0.56197032  0.00195667  0.75190222     0.26700
H322        H  0.47103547  0.99386502  0.75408671     0.26700
C323        C  0.29738011  0.96683050  0.65272377     0.30300
C324        C  0.24698004  0.94628516  0.64796952    -0.36100
C325        C  0.21947475  0.96375484  0.62004133     0.16300
C326        C  0.24027279  0.99848086  0.59789240     0.22100
C327        C  0.29102402  0.01880370  0.60256380    -0.34200
C328        C  0.31825876  0.00185002  0.63079212     0.16200
O329        O  0.32785254  0.95886233  0.67826988    -0.26200
C330        C  0.36902684  0.98925831  0.67286090     0.06000
C331        C  0.36507431  0.01684386  0.64357299    -0.31100
O332        O  0.20582045  0.01206437  0.57444940    -0.22900
C333        C  0.16232445  0.98586669  0.58187736    -0.02900
C334        C  0.16873783  0.95525610  0.60996664    -0.17300
H335        H  0.22940454  0.92011374  0.66543596     0.20700
H336        H  0.30718975  0.04740958  0.58594508     0.19000
H337        H  0.39168741  0.04558184  0.63376205     0.19000
H338        H  0.13924184  0.93189288  0.62189577     0.14800
C339        C  0.24593024  0.98345577  0.91109081     0.30300
C340        C  0.28102364  0.95219182  0.89006066    -0.36100
C341        C  0.31646611  0.98147170  0.87169675     0.16300
C342        C  0.31763923  0.03774630  0.87393775     0.22100
C343        C  0.28257872  0.06909231  0.89509072    -0.34200
C344        C  0.24694625  0.03972471  0.91345356     0.16200
O345        O  0.20716080  0.96483194  0.92889061    -0.26200
C346        C  0.18305421  0.00957019  0.94309171     0.06000
C347        C  0.20618678  0.05743438  0.93444959    -0.31100
O348        O  0.35300960  0.05676247  0.85378051    -0.22900
C349        C  0.37445679  0.01202988  0.83844687    -0.02900
C350        C  0.35331368  0.96408014  0.84857571    -0.17300
H351        H  0.27979680  0.90823870  0.88761070     0.20700
H352        H  0.28227303  0.11338766  0.89662671     0.19000
H353        H  0.19287417  0.09943586  0.94124447     0.19000
H354        H  0.36321553  0.92268769  0.83980976     0.14800
C355        C  0.81331861  0.99956533  0.61889236     0.30300
C356        C  0.79242774  0.98540940  0.64869956    -0.36100
C357        C  0.73582985  0.99874141  0.65341444     0.16300
C358        C  0.70186191  0.02401519  0.63044000     0.22100
C359        C  0.72268664  0.03772362  0.60055836    -0.34200
C360        C  0.77934526  0.02477522  0.59590783     0.16200
O361        O  0.86494971  0.99079259  0.60921807    -0.26200
C362        C  0.86400708  0.01099617  0.57969622     0.06000
C363        C  0.81182674  0.03256442  0.57021574    -0.31100
O364        O  0.65064301  0.03491557  0.64049558    -0.22900
C365        C  0.65192175  0.01648280  0.67035601    -0.02900
C366        C  0.70377298  0.99313924  0.67951007    -0.17300
H367        H  0.81852806  0.96592920  0.66705117     0.20700
H368        H  0.69668486  0.05783585  0.58235698     0.19000
H369        H  0.79943550  0.05009006  0.54735866     0.19000
H370        H  0.71624952  0.97634687  0.70252096     0.14800
C371        C  0.70887865  0.04507950  0.86390243     0.30300
C372        C  0.73033437  0.05805275  0.89305536    -0.36100
C373        C  0.78602868  0.04055223  0.89754204     0.16300
C374        C  0.81865819  0.01195275  0.87505481     0.22100
C375        C  0.79724356  0.99913185  0.84578411    -0.34200
C376        C  0.74146123  0.01677793  0.84128708     0.16200
O377        O  0.65763843  0.05695707  0.85483662    -0.26200
C378        C  0.65736772  0.03611638  0.82593942     0.06000
C379        C  0.70841081  0.01044902  0.81641554    -0.31100
O380        O  0.86883054  0.99681791  0.88519334    -0.22900
C381        C  0.86815441  0.01633030  0.91448105    -0.02900
C382        C  0.81780570  0.04404744  0.92327035    -0.17300
H383        H  0.70518035  0.07960830  0.91117826     0.20700
H384        H  0.82201162  0.97620250  0.82800509     0.19000
H385        H  0.71937153  0.98997499  0.79429699     0.19000
H386        H  0.80559443  0.06171795  0.94598531     0.14800
C387        C  0.01671812  0.31364727  0.62621734     0.30300
C388        C  0.04154101  0.29508438  0.59754585    -0.36100
C389        C  0.02923783  0.24329798  0.58735914     0.16300
C390        C  0.99463445  0.21209543  0.60411515     0.22100
C391        C  0.96960983  0.23080467  0.63263041    -0.34200
C392        C  0.98220798  0.28229487  0.64291026     0.16200
O393        O  0.02376827  0.35991892  0.64071885    -0.26200
C394        C  0.99349594  0.35803303  0.66712282     0.06000
C395        C  0.96668887  0.31067255  0.66962405    -0.31100
O396        O  0.99078277  0.16386585  0.59107925    -0.22900
C397        C  0.02337152  0.16399284  0.56560310    -0.02900
C398        C  0.04825304  0.21247061  0.56203839    -0.17300
H399        H  0.06937192  0.31880829  0.58444432     0.20700
H400        H  0.94310093  0.20633309  0.64623476     0.19000
H401        H  0.94002145  0.29878665  0.68859800     0.19000
H402        H  0.07749276  0.22265978  0.54401372     0.14800
C403        C  0.97335073  0.19269966  0.88779148     0.30300
C404        C  0.95889015  0.21183213  0.85718643    -0.36100
C405        C  0.96568149  0.26721217  0.85036787     0.16300
C406        C  0.98591784  0.30139296  0.87195055     0.22100
C407        C  0.99922581  0.28260874  0.90282400    -0.34200
C408        C  0.99165191  0.22739813  0.90983510     0.16200
O409        O  0.97403400  0.14143674  0.89849512    -0.26200
C410        C  0.99168879  0.14364644  0.92805085     0.06000
C411        C  0.00290388  0.19610244  0.93648311    -0.31100
O412        O  0.99177036  0.35078516  0.85985174    -0.22900
C413        C  0.97465271  0.34842320  0.83012805    -0.02900
C414        C  0.95733751  0.29744694  0.82317393    -0.17300
H415        H  0.94461591  0.18505247  0.83965522     0.20700
H416        H  0.01541645  0.30883649  0.91997194     0.19000
H417        H  0.02019183  0.20842385  0.95835504     0.19000
H418        H  0.94182535  0.28425289  0.80101003     0.14800
C419        C  0.96695824  0.76990263  0.59021795     0.30300
C420        C  0.93180562  0.73783526  0.60699423    -0.36100
C421        C  0.95588038  0.70321856  0.63094427     0.16300
C422        C  0.01094467  0.69995695  0.63780599     0.22100
C423        C  0.04622047  0.73199984  0.62092493    -0.34200
C424        C  0.02201601  0.76698058  0.59702068     0.16200
O425        O  0.95208297  0.80778194  0.56850040    -0.26200
C426        C  0.99805622  0.82963296  0.56109237     0.06000
C427        C  0.04309469  0.80570038  0.57803601    -0.31100
O428        O  0.02464048  0.66467981  0.66118214    -0.22900
C429        C  0.97767607  0.64530860  0.66936180    -0.02900
C430        C  0.93349536  0.66796025  0.65145544    -0.17300
H431        H  0.88841414  0.74059581  0.60215097     0.20700
H432        H  0.08929042  0.73043872  0.62640218     0.19000
H433        H  0.08432890  0.81752684  0.57788079     0.19000
H434        H  0.89134898  0.65889175  0.65302303     0.14800
C435        C  0.99554264  0.68583830  0.86743724     0.30300
C436        C  0.03127625  0.71478802  0.88470454    -0.36100
C437        C  0.00666196  0.75332011  0.90633474     0.16300
C438        C  0.95064133  0.76285265  0.91069945     0.22100
C439        C  0.91482439  0.73363177  0.89350776    -0.34200
C440        C  0.93947956  0.69501239  0.87182940     0.16200
O441        O  0.00987560  0.64936326  0.84527420    -0.26200
C442        C  0.96247532  0.63462573  0.83534794     0.06000
C443        C  0.91717374  0.66173927  0.85096702    -0.31100
O444        O  0.93640539  0.80351285  0.93050637    -0.22900
C445        C  0.98392853  0.82014338  0.93907634    -0.02900
C446        C  0.02900614  0.79015537  0.92479417    -0.17300
H447        H  0.07522129  0.70859409  0.88098849     0.20700
H448        H  0.87077356  0.74147152  0.89626002     0.19000
H449        H  0.87425998  0.65801109  0.84712295     0.19000
H450        H  0.07176525  0.79679910  0.92629291     0.14800
loop_ 
_geom_bond_atom_site_label_1 
_geom_bond_atom_site_label_2 
_geom_bond_distance 
_geom_bond_site_symmetry_2 
_ccdc_geom_bond_type 
O1            C9   1.272   1_565  A
O1          Co21   2.031   1_655  S
O2           C10   1.298       .  A
O2          Co22   2.117   1_545  S
O3           C11   1.256       .  A
O3          Co23   1.971   1_544  S
O4           C12   1.268   1_655  A
O4          Co24   1.970   1_655  S
O5           C11   1.264   1_565  A
O5          Co22   2.018   1_655  S
O6           C12   1.277       .  A
O6          Co21   2.024   1_545  S
O7           C10   1.265       .  A
O7         Co249   1.894       .  S
O8            C9   1.258       .  A
O8         Co248   1.956   1_545  S
C9          C156   1.469       .  S
C10         C172   1.474       .  S
C11         C137   1.473       .  S
C12         C185   1.468   1_455  S
O13          C26   1.259   1_565  A
O13         Co21   1.978       .  S
O14          C27   1.270   1_455  A
O14         Co22   1.977       .  S
O15          C28   1.275       .  A
O15        Co248   2.033       .  S
O16          C29   1.300   1_545  A
O16        Co249   2.122       .  S
O17          C29   1.266       .  A
O17         Co22   1.886       .  S
O18          C28   1.264   1_455  A
O18         Co21   1.970       .  S
O19          C26   1.264       .  A
O19         Co24   2.009       .  S
O20          C27   1.277       .  A
O20         Co23   2.021   1_554  S
Co21         O25   2.044       .  S
Co22        O250   2.013   1_554  S
Co23        O233   1.956   1_565  S
Co23        O240   2.033       .  S
Co23        O250   2.026   1_655  S
Co24        O232   1.894       .  S
Co24        O241   2.122       .  S
Co24         O25   2.016   1_545  S
O25        Co247   2.013       .  S
O25        Co248   2.026   1_455  S
C26         C121   1.472       .  S
C27         C201   1.473       .  S
C28         C220   1.478       .  S
C29         C108   1.478       .  S
N30          C35   1.355       .  A
N30          C34   1.355       .  A
N30          H62   1.041       .  S
N31          C38   1.353       .  A
N31          C39   1.351       .  A
N32          C37   1.356       .  A
N32          C36   1.355       .  A
N32          H63   1.038       .  S
N33          C40   1.353       .  A
N33          C41   1.353       .  A
C34          C42   1.385   1_655  A
C34          C50   1.414       .  A
C35          C51   1.418       .  A
C35          C43   1.388   1_655  A
C36          C44   1.387       .  A
C36          C53   1.419       .  A
C37          C52   1.420       .  A
C37          C45   1.388       .  A
C38          C50   1.412       .  A
C38          C46   1.385       .  A
C39          C53   1.415       .  A
C39          C47   1.388       .  A
C40          C48   1.387       .  A
C40          C51   1.416       .  A
C41          C49   1.386       .  A
C41          C52   1.414       .  A
C42          C43   1.374       .  A
C42          H54   1.082       .  S
C43          H55   1.082       .  S
C44          C45   1.377       .  A
C44          H56   1.082       .  S
C45          H57   1.082       .  S
C46          C47   1.372       .  A
C46          H58   1.082       .  S
C47          H59   1.082       .  S
C48          C49   1.375       .  A
C48          H60   1.081       .  S
C49          H61   1.082       .  S
C50         C169   1.490       .  S
C51         C188   1.494       .  S
C52         C217   1.486       .  S
C53         C204   1.483       .  S
N64          C69   1.349       .  A
N64          C68   1.349       .  A
N64          H96   1.040       .  S
N65          C72   1.354       .  A
N65          C73   1.350       .  A
N66          C71   1.359       .  A
N66          C70   1.357       .  A
N66          H97   1.036   1_545  S
N67          C74   1.354       .  A
N67          C75   1.352   1_545  A
C68          C76   1.386       .  A
C68          C84   1.407       .  A
C69          C85   1.407       .  A
C69          C77   1.387       .  A
C70          C78   1.386       .  A
C70          C87   1.421       .  A
C71          C86   1.426   1_545  A
C71          C79   1.389       .  A
C72          C84   1.413       .  A
C72          C80   1.385       .  A
C73          C87   1.413       .  A
C73          C81   1.387       .  A
C74          C82   1.384   1_545  A
C74          C85   1.412       .  A
C75          C83   1.388       .  A
C75          C86   1.418       .  A
C76          C77   1.373       .  A
C76          H88   1.083       .  S
C77          H89   1.082       .  S
C78          C79   1.376       .  A
C78          H90   1.083       .  S
C79          H91   1.081       .  S
C80          C81   1.376       .  A
C80          H92   1.081       .  S
C81          H93   1.082   1_545  S
C82          C83   1.376       .  A
C82          H94   1.082       .  S
C83          H95   1.082       .  S
C84         C153   1.487       .  S
C85         C140   1.485       .  S
C86         C105   1.497       .  S
C87         C124   1.482       .  S
C98         C103   1.379   1_565  A
C98          C99   1.403       .  A
C98         O104   1.321       .  A
C99         C100   1.404       .  A
C99         H110   1.082       .  S
C100        C109   1.360       .  A
C100        C101   1.380       .  A
C101        C102   1.408   1_565  A
C101        O107   1.325   1_565  A
C102        C103   1.408       .  A
C102        H111   1.082       .  S
C103        C106   1.365       .  A
O104        C105   1.332       .  A
C105        C106   1.397   1_565  A
C106        H112   1.082       .  S
O107        C108   1.334   1_545  A
C108        C109   1.392       .  A
C109        H113   1.083       .  S
C114        C119   1.380   1_565  A
C114        C115   1.403       .  A
C114        O120   1.318       .  A
C115        C116   1.402       .  A
C115        H126   1.082       .  S
C116        C125   1.362       .  A
C116        C117   1.381   1_565  A
C117        C118   1.407       .  A
C117        O123   1.321       .  A
C118        C119   1.406       .  A
C118        H127   1.082       .  S
C119        C122   1.366       .  A
O120        C121   1.330   1_565  A
C121        C122   1.394       .  A
C122        H128   1.083       .  S
O123        C124   1.332       .  A
C124        C125   1.389   1_545  A
C125        H129   1.082       .  S
C130        C135   1.381   1_565  A
C130        C131   1.403       .  A
C130        O136   1.322       .  A
C131        C132   1.404       .  A
C131        H142   1.082       .  S
C132        C141   1.358       .  A
C132        C133   1.381   1_565  A
C133        C134   1.403       .  A
C133        O139   1.322       .  A
C134        C135   1.404       .  A
C134        H143   1.082       .  S
C135        C138   1.359       .  A
O136        C137   1.331   1_565  A
C137        C138   1.392       .  A
C138        H144   1.083       .  S
O139        C140   1.330       .  A
C140        C141   1.394   1_545  A
C141        H145   1.083       .  S
C146        C151   1.381       .  A
C146        C147   1.400       .  A
C146        O152   1.320       .  A
C147        C148   1.402       .  A
C147        H158   1.082       .  S
C148        C157   1.356       .  A
C148        C149   1.381       .  A
C149        C150   1.403   1_545  A
C149        O155   1.322   1_545  A
C150        C151   1.404   1_565  A
C150        H159   1.082       .  S
C151        C154   1.358       .  A
O152        C153   1.330       .  A
C153        C154   1.395       .  A
C154        H160   1.083   1_545  S
O155        C156   1.331   1_565  A
C156        C157   1.391       .  A
C157        H161   1.083       .  S
C162        C167   1.380   1_455  A
C162        C163   1.406       .  A
C162        O168   1.322       .  A
C163        C164   1.406       .  A
C163        H174   1.082       .  S
C164        C173   1.364       .  A
C164        C165   1.380   1_455  A
C165        C166   1.403       .  A
C165        O171   1.320       .  A
C166        C167   1.403       .  A
C166        H175   1.082       .  S
C167        C170   1.361       .  A
O168        C169   1.333   1_455  A
C169        C170   1.392       .  A
C170        H176   1.082       .  S
O171        C172   1.331   1_655  A
C172        C173   1.394       .  A
C173        H177   1.083       .  S
C178        C183   1.381       .  A
C178        C179   1.403       .  A
C178        O184   1.320       .  A
C179        C180   1.403       .  A
C179        H190   1.082       .  S
C180        C189   1.359       .  A
C180        C181   1.379       .  A
C181        C182   1.405       .  A
C181        O187   1.321       .  A
C182        C183   1.405       .  A
C182        H191   1.082   1_655  S
C183        C186   1.363   1_655  A
O184        C185   1.331       .  A
C185        C186   1.391   1_655  A
C186        H192   1.083       .  S
O187        C188   1.333       .  A
C188        C189   1.394       .  A
C189        H193   1.082       .  S
C194        C199   1.380   1_655  A
C194        C195   1.403       .  A
C194        O200   1.317       .  A
C195        C196   1.401       .  A
C195        H206   1.082       .  S
C196        C205   1.362       .  A
C196        C197   1.380   1_655  A
C197        C198   1.407       .  A
C197        O203   1.320       .  A
C198        C199   1.406       .  A
C198        H207   1.082       .  S
C199        C202   1.367       .  A
O200        C201   1.331       .  A
C201        C202   1.394   1_655  A
C202        H208   1.082       .  S
O203        C204   1.332   1_455  A
C204        C205   1.390       .  A
C205        H209   1.082       .  S
C210        C215   1.380       .  A
C210        C211   1.404   1_655  A
C210        O216   1.319   1_655  A
C211        C212   1.404       .  A
C211        H222   1.082       .  S
C212        C221   1.364       .  A
C212        C213   1.380   1_455  A
C213        C214   1.408       .  A
C213        O219   1.322       .  A
C214        C215   1.407       .  A
C214        H223   1.082       .  S
C215        C218   1.368       .  A
O216        C217   1.331   1_455  A
C217        C218   1.393       .  A
C218        H224   1.082       .  S
O219        C220   1.333       .  A
C220        C221   1.393   1_655  A
C221        H225   1.083       .  S
O226        C234   1.272   1_565  A
O226       Co246   2.031   1_655  S
O227        C235   1.298       .  A
O227       Co247   2.117   1_545  S
O228        C236   1.256       .  A
O228       Co248   1.971   1_545  S
O229        C237   1.268   1_655  A
O229       Co249   1.970   1_656  S
O230        C236   1.264   1_565  A
O230       Co247   2.018   1_655  S
O231        C237   1.277       .  A
O231       Co246   2.024   1_545  S
O232        C235   1.265       .  A
O233        C234   1.258       .  A
C234        C381   1.469       .  S
C235        C397   1.474       .  S
C236        C362   1.473       .  S
C237        C410   1.468   1_455  S
O238        C251   1.259   1_565  A
O238       Co246   1.978       .  S
O239        C252   1.270   1_455  A
O239       Co247   1.977       .  S
O240        C253   1.275       .  A
O241        C254   1.300   1_545  A
O242        C254   1.266       .  A
O242       Co247   1.886       .  S
O243        C253   1.264   1_455  A
O243       Co246   1.970       .  S
O244        C251   1.264       .  A
O244       Co249   2.009   1_556  S
O245        C252   1.277       .  A
O245       Co248   2.021       .  S
Co246       O250   2.044       .  S
Co249       O250   2.016   1_544  S
C251        C346   1.472       .  S
C252        C426   1.473       .  S
C253        C445   1.478       .  S
C254        C333   1.478       .  S
N255        C260   1.355       .  A
N255        C259   1.355       .  A
N255        H287   1.041       .  S
N256        C263   1.353       .  A
N256        C264   1.351       .  A
N257        C262   1.356       .  A
N257        C261   1.355       .  A
N257        H288   1.038       .  S
N258        C265   1.353       .  A
N258        C266   1.353       .  A
C259        C267   1.385   1_655  A
C259        C275   1.414       .  A
C260        C276   1.418       .  A
C260        C268   1.388   1_655  A
C261        C269   1.387       .  A
C261        C278   1.419       .  A
C262        C277   1.420       .  A
C262        C270   1.388       .  A
C263        C275   1.412       .  A
C263        C271   1.385       .  A
C264        C278   1.415       .  A
C264        C272   1.388       .  A
C265        C273   1.387       .  A
C265        C276   1.416       .  A
C266        C274   1.386       .  A
C266        C277   1.414       .  A
C267        C268   1.374       .  A
C267        H279   1.082       .  S
C268        H280   1.082       .  S
C269        C270   1.377       .  A
C269        H281   1.082       .  S
C270        H282   1.082       .  S
C271        C272   1.372       .  A
C271        H283   1.082       .  S
C272        H284   1.082       .  S
C273        C274   1.375       .  A
C273        H285   1.081       .  S
C274        H286   1.082       .  S
C275        C394   1.490       .  S
C276        C413   1.494       .  S
C277        C442   1.486       .  S
C278        C429   1.483       .  S
N289        C294   1.349       .  A
N289        C293   1.349       .  A
N289        H321   1.040       .  S
N290        C297   1.354       .  A
N290        C298   1.350       .  A
N291        C296   1.359       .  A
N291        C295   1.357       .  A
N291        H322   1.036   1_545  S
N292        C299   1.354       .  A
N292        C300   1.352   1_545  A
C293        C301   1.386       .  A
C293        C309   1.407       .  A
C294        C310   1.407       .  A
C294        C302   1.387       .  A
C295        C303   1.386       .  A
C295        C312   1.421       .  A
C296        C311   1.426   1_545  A
C296        C304   1.389       .  A
C297        C309   1.413       .  A
C297        C305   1.385       .  A
C298        C312   1.413       .  A
C298        C306   1.387       .  A
C299        C307   1.384   1_545  A
C299        C310   1.412       .  A
C300        C308   1.388       .  A
C300        C311   1.418       .  A
C301        C302   1.373       .  A
C301        H313   1.083       .  S
C302        H314   1.082       .  S
C303        C304   1.376       .  A
C303        H315   1.083       .  S
C304        H316   1.081       .  S
C305        C306   1.376       .  A
C305        H317   1.081       .  S
C306        H318   1.082   1_545  S
C307        C308   1.376       .  A
C307        H319   1.082       .  S
C308        H320   1.082       .  S
C309        C378   1.487       .  S
C310        C365   1.485       .  S
C311        C330   1.497       .  S
C312        C349   1.482       .  S
C323        C328   1.379   1_565  A
C323        C324   1.403       .  A
C323        O329   1.321       .  A
C324        C325   1.404       .  A
C324        H335   1.082       .  S
C325        C334   1.360       .  A
C325        C326   1.380       .  A
C326        C327   1.408   1_565  A
C326        O332   1.325   1_565  A
C327        C328   1.408       .  A
C327        H336   1.082       .  S
C328        C331   1.365       .  A
O329        C330   1.332       .  A
C330        C331   1.397   1_565  A
C331        H337   1.082       .  S
O332        C333   1.334   1_545  A
C333        C334   1.392       .  A
C334        H338   1.083       .  S
C339        C344   1.380   1_565  A
C339        C340   1.403       .  A
C339        O345   1.318       .  A
C340        C341   1.402       .  A
C340        H351   1.082       .  S
C341        C350   1.362       .  A
C341        C342   1.381   1_565  A
C342        C343   1.407       .  A
C342        O348   1.321       .  A
C343        C344   1.406       .  A
C343        H352   1.082       .  S
C344        C347   1.366       .  A
O345        C346   1.330   1_565  A
C346        C347   1.394       .  A
C347        H353   1.083       .  S
O348        C349   1.332       .  A
C349        C350   1.389   1_545  A
C350        H354   1.082       .  S
C355        C360   1.381   1_565  A
C355        C356   1.403       .  A
C355        O361   1.322       .  A
C356        C357   1.404       .  A
C356        H367   1.082       .  S
C357        C366   1.358       .  A
C357        C358   1.381   1_565  A
C358        C359   1.403       .  A
C358        O364   1.322       .  A
C359        C360   1.404       .  A
C359        H368   1.082       .  S
C360        C363   1.359       .  A
O361        C362   1.331   1_565  A
C362        C363   1.392       .  A
C363        H369   1.083       .  S
O364        C365   1.330       .  A
C365        C366   1.394   1_545  A
C366        H370   1.083       .  S
C371        C376   1.381       .  A
C371        C372   1.400       .  A
C371        O377   1.320       .  A
C372        C373   1.402       .  A
C372        H383   1.082       .  S
C373        C382   1.356       .  A
C373        C374   1.381       .  A
C374        C375   1.403   1_545  A
C374        O380   1.322   1_545  A
C375        C376   1.404   1_565  A
C375        H384   1.082       .  S
C376        C379   1.358       .  A
O377        C378   1.330       .  A
C378        C379   1.395       .  A
C379        H385   1.083   1_545  S
O380        C381   1.331   1_565  A
C381        C382   1.391       .  A
C382        H386   1.083       .  S
C387        C392   1.380   1_455  A
C387        C388   1.406       .  A
C387        O393   1.322       .  A
C388        C389   1.406       .  A
C388        H399   1.082       .  S
C389        C398   1.364       .  A
C389        C390   1.380   1_455  A
C390        C391   1.403       .  A
C390        O396   1.320       .  A
C391        C392   1.403       .  A
C391        H400   1.082       .  S
C392        C395   1.361       .  A
O393        C394   1.333   1_455  A
C394        C395   1.392       .  A
C395        H401   1.082       .  S
O396        C397   1.331   1_655  A
C397        C398   1.394       .  A
C398        H402   1.083       .  S
C403        C408   1.381       .  A
C403        C404   1.403       .  A
C403        O409   1.320       .  A
C404        C405   1.403       .  A
C404        H415   1.082       .  S
C405        C414   1.359       .  A
C405        C406   1.379       .  A
C406        C407   1.405       .  A
C406        O412   1.321       .  A
C407        C408   1.405       .  A
C407        H416   1.082   1_655  S
C408        C411   1.363   1_655  A
O409        C410   1.331       .  A
C410        C411   1.391   1_655  A
C411        H417   1.083       .  S
O412        C413   1.333       .  A
C413        C414   1.394       .  A
C414        H418   1.082       .  S
C419        C424   1.380   1_655  A
C419        C420   1.403       .  A
C419        O425   1.317       .  A
C420        C421   1.401       .  A
C420        H431   1.082       .  S
C421        C430   1.362       .  A
C421        C422   1.380   1_655  A
C422        C423   1.407       .  A
C422        O428   1.320       .  A
C423        C424   1.406       .  A
C423        H432   1.082       .  S
C424        C427   1.367       .  A
O425        C426   1.331       .  A
C426        C427   1.394   1_655  A
C427        H433   1.082       .  S
O428        C429   1.332   1_455  A
C429        C430   1.390       .  A
C430        H434   1.082       .  S
C435        C440   1.380       .  A
C435        C436   1.404   1_655  A
C435        O441   1.319   1_655  A
C436        C437   1.404       .  A
C436        H447   1.082       .  S
C437        C446   1.364       .  A
C437        C438   1.380   1_455  A
C438        C439   1.408       .  A
C438        O444   1.322       .  A
C439        C440   1.407       .  A
C439        H448   1.082       .  S
C440        C443   1.368       .  A
O441        C442   1.331   1_455  A
C442        C443   1.393       .  A
C443        H449   1.082       .  S
O444        C445   1.333       .  A
C445        C446   1.393   1_655  A
C446        H450   1.083       .  S
