geometry optimzed in LAMMPS
_audit_creation_date              2020-11-30 
_audit_creation_method            'lammps2cif' 
_symmetry_space_group_name_H-M    'P1' 
_symmetry_Int_Tables_number       1 
_symmetry_cell_setting            triclinic 
loop_ 
_symmetry_equiv_pos_as_xyz 
  x,y,z 
_cell_length_a                    42.73754188195672 
_cell_length_b                    42.490846316964834 
_cell_length_c                    42.49817670565981 
_cell_angle_alpha                 90.09818159488529 
_cell_angle_beta                  90.06389474685508 
_cell_angle_gamma                 89.85861520774063 
loop_ 
_atom_site_label 
_atom_site_type_symbol 
_atom_site_fract_x 
_atom_site_fract_y 
_atom_site_fract_z 
_atom_site_charge 
O1          O  0.96101064  0.65621016  0.87170264    -0.86210
O2          O  0.94631725  0.67804022  0.81339027    -0.83250
C3          C  0.97372874  0.68599287  0.80636579     0.97260
O4          O  0.99434408  0.66514816  0.80064370    -0.83290
O5          O  0.02071681  0.60050613  0.79472533    -0.85930
C6          C  0.03186916  0.59345570  0.82150992     1.01780
O7          O  0.01632144  0.60174918  0.84481406    -0.78690
O8          O  0.97138555  0.60872501  0.88721680    -0.78880
C9          C  0.97696612  0.63796391  0.88900903     1.01730
O10         O  0.90869479  0.60884791  0.86426412    -0.86200
O11         O  0.90349907  0.62954885  0.80129603    -0.83270
C12         C  0.91144439  0.63549907  0.77298857     0.97280
O13         O  0.93959779  0.64306401  0.76700912    -0.83290
O14         O  0.96175650  0.58532939  0.76981344    -0.85900
C15         C  0.96788978  0.55927398  0.78171485     1.01750
O16         O  0.97872400  0.55623549  0.80940555    -0.78720
O17         O  0.93282119  0.56543757  0.85082769    -0.78870
C18         C  0.90929424  0.57898609  0.86206456     1.01710
Cr19       Cr  0.93148856  0.64135878  0.83735292     1.93740
Cr20       Cr  0.97848792  0.62361625  0.78607474     1.93210
Cr21       Cr  0.97413495  0.58492533  0.84662706     1.39100
O22         O  0.96066549  0.61600732  0.82305571    -1.23960
O23         O  0.95708083  0.33849138  0.64400353    -0.86210
O24         O  0.94926509  0.32179117  0.70447190    -0.83250
C25         C  0.97664095  0.31491845  0.71353868     0.97260
O26         O  0.99746784  0.33624497  0.71597036    -0.83290
O27         O  0.02448423  0.40034344  0.71021053    -0.85930
C28         C  0.03343576  0.40521406  0.68209858     1.01780
O29         O  0.01744536  0.39266073  0.66093309    -0.78690
O30         O  0.96549716  0.38406421  0.62369454    -0.78880
C31         C  0.97103137  0.35497463  0.62379324     1.01730
O32         O  0.90671344  0.38949619  0.65311614    -0.86200
O33         O  0.90720732  0.37212471  0.71711219    -0.83270
C34         C  0.91745724  0.36817712  0.74499823     0.97280
O35         O  0.94633922  0.36303917  0.74944104    -0.83290
O36         O  0.96687507  0.42154077  0.73603787    -0.85900
C37         C  0.97140014  0.44523280  0.71898863     1.01750
O38         O  0.98472065  0.44281952  0.69264796    -0.78720
O39         O  0.93506032  0.43180674  0.65942556    -0.78870
C40         C  0.90930161  0.41947281  0.65329520     1.01710
Cr41       Cr  0.93178527  0.35732852  0.67962290     1.93740
Cr42       Cr  0.98300489  0.38001948  0.72510117     1.93210
Cr43       Cr  0.97523496  0.41073879  0.66056827     1.39100
O44         O  0.96289998  0.38289096  0.68863781    -1.23960
O45         O  0.75547273  0.63122245  0.64874517    -0.86210
O46         O  0.71088861  0.58561589  0.65549580    -0.83250
C47         C  0.69820680  0.56076294  0.66463501     0.97260
O48         O  0.71233036  0.53506658  0.65953369    -0.83290
O49         O  0.73567943  0.54004303  0.59626480    -0.85930
C50         C  0.75394279  0.54760620  0.57415420     1.01780
O51         O  0.78121344  0.55796408  0.57994913    -0.78690
O52         O  0.76531685  0.61606581  0.60130941    -0.78880
C53         C  0.74930267  0.63299325  0.61988300     1.01730
O54         O  0.79362552  0.59779086  0.69223398    -0.86200
O55         O  0.74971805  0.55529507  0.70200024    -0.83270
C56         C  0.76454306  0.52954366  0.70188912     0.97280
O57         O  0.77339583  0.51694133  0.67667848    -0.83290
O58         O  0.79332566  0.51252298  0.61657863    -0.85900
C59         C  0.82053457  0.52006600  0.62547920     1.01750
O60         O  0.82682273  0.54905922  0.62976241    -0.78720
O61         O  0.81777249  0.61185159  0.64915295    -0.78870
C62         C  0.81629552  0.61090043  0.67913164     1.01710
Cr63       Cr  0.75307609  0.59119833  0.67258845     1.93740
Cr64       Cr  0.75425764  0.52890429  0.63713800     1.93210
Cr65       Cr  0.79644944  0.58317854  0.61660807     1.39100
O66         O  0.76838090  0.56774511  0.64238688    -1.23960
O67         O  0.76786129  0.36237484  0.87592734    -0.86210
O68         O  0.71804189  0.40039841  0.86622122    -0.83250
C69         C  0.70180013  0.42176092  0.85444763     0.97260
O70         O  0.71196393  0.44962673  0.85748856    -0.83290
O71         O  0.73669324  0.45364872  0.92034374    -0.85930
C72         C  0.75577688  0.45053844  0.94281276     1.01780
O73         O  0.78434239  0.44389181  0.93771314    -0.78690
O74         O  0.77683237  0.38319133  0.92150462    -0.78880
C75         C  0.76283767  0.36283923  0.90514404     1.01730
O76         O  0.80104315  0.39662206  0.82889984    -0.86200
O77         O  0.75183173  0.43197963  0.81534546    -0.83270
C78         C  0.76300879  0.45955529  0.81419580     0.97280
O79         O  0.77030661  0.47431916  0.83860250    -0.83290
O80         O  0.79016534  0.48734527  0.89639105    -0.85900
C81         C  0.81885617  0.48206218  0.89054334     1.01750
O82         O  0.82862258  0.45393589  0.88784244    -0.78720
O83         O  0.82760504  0.38950554  0.87241503    -0.78870
C84         C  0.82542259  0.38759880  0.84247103     1.01710
Cr85       Cr  0.76021283  0.39935033  0.84844111     1.93740
Cr86       Cr  0.75317857  0.46362256  0.87863537     1.93210
Cr87       Cr  0.80284756  0.41779357  0.90306707     1.39100
O88         O  0.77271462  0.42705773  0.87633556    -1.23960
O89         O  0.33452186  0.63730030  0.97526898    -0.86210
O90         O  0.31235045  0.69551528  0.96418224    -0.83250
C91         C  0.30563161  0.70586450  0.99143458     0.97260
O92         O  0.32714031  0.71295149  0.01088761    -0.83290
O93         O  0.39156311  0.71980782  0.03463516    -0.85930
C94         C  0.39754204  0.69434983  0.04884977     1.01780
O95         O  0.38794690  0.66951295  0.03657782    -0.78690
O96         O  0.38035750  0.62342540  0.99372538    -0.78880
C97         C  0.35104282  0.62004530  0.99305362     1.01730
O98         O  0.38328247  0.64645195  0.92443971    -0.86200
O99         O  0.36263108  0.70870221  0.91955364    -0.83270
C100        C  0.35604334  0.73697646  0.92676286     0.97280
O101        O  0.34644013  0.74287892  0.95424677    -0.83290
O102        O  0.40634948  0.73884119  0.97342994    -0.85900
C103        C  0.43182768  0.72592996  0.98014599     1.01750
O104        O  0.43306501  0.69996451  0.99485575    -0.78720
O105        O  0.42397031  0.65551379  0.95390231    -0.78870
C106        C  0.41283496  0.64649018  0.92827216     1.01710
Cr107      Cr  0.34983930  0.67257600  0.94754655     1.93740
Cr108      Cr  0.36780264  0.72556368  0.99284829     1.93210
Cr109      Cr  0.40401399  0.66354759  0.99384829     1.39100
O110        O  0.37397696  0.68688359  0.97783613    -1.23960
O111        O  0.65165862  0.86498851  0.97625634    -0.86210
O112        O  0.66932368  0.80534635  0.96785263    -0.83250
C113        C  0.67548932  0.79636833  0.99569118     0.97260
O114        O  0.65372585  0.79073371  0.01538135    -0.83290
O115        O  0.58771892  0.78734304  0.03914065    -0.85930
C116        C  0.58305716  0.81407230  0.05129404     1.01780
O117        O  0.59793997  0.83570897  0.03907801    -0.78690
O118        O  0.60874459  0.88161191  0.99926529    -0.78880
C119        C  0.63815483  0.88181420  0.99678569     1.01730
O120        O  0.60123076  0.85658124  0.92675080    -0.86200
O121        O  0.61866429  0.79344160  0.92386021    -0.83270
C122        C  0.62468682  0.76521440  0.93164164     0.97280
O123        O  0.63293293  0.75959931  0.95967962    -0.83290
O124        O  0.57340717  0.76903074  0.97801057    -0.85900
C125        C  0.54858722  0.78369702  0.98358757     1.01750
O126        O  0.54847789  0.81028377  0.99748775    -0.78720
O127        O  0.56113468  0.85592524  0.95848909    -0.78870
C128        C  0.57223859  0.86117105  0.93184526     1.01710
Cr129      Cr  0.63335557  0.82978644  0.95037700     1.93740
Cr130      Cr  0.61234629  0.77980050  0.99757189     1.93210
Cr131      Cr  0.58100477  0.84434076  0.99770926     1.39100
O132        O  0.60856119  0.81831410  0.98122016    -1.23960
O133        O  0.62610711  0.63385242  0.77318045    -0.86210
O134        O  0.58165332  0.64283772  0.72939886    -0.83250
C135        C  0.56001266  0.65583750  0.71517051     0.97260
O136        O  0.53298380  0.64987151  0.72569323    -0.83290
O137        O  0.53488203  0.58502272  0.75268710    -0.85930
C138        C  0.54005005  0.56365385  0.77296661     1.01780
O139        O  0.54875553  0.57098542  0.80052271    -0.78690
O140        O  0.60814949  0.58837734  0.78777313    -0.78880
C141        C  0.62587877  0.60427989  0.77012386     1.01730
O142        O  0.59403029  0.68125318  0.81163877    -0.86200
O143        O  0.55385310  0.69246653  0.76609414    -0.83270
C144        C  0.52725704  0.69307350  0.77891783     0.97280
O145        O  0.51262055  0.66829139  0.78521245    -0.83290
O146        O  0.50429316  0.61026661  0.80802450    -0.85900
C147        C  0.51136836  0.61823046  0.83600634     1.01750
O148        O  0.53993450  0.62216292  0.84303277    -0.78720
O149        O  0.60253203  0.63850221  0.83881505    -0.78870
C150        C  0.60099206  0.66839020  0.83721695     1.01710
Cr151      Cr  0.58775820  0.66073906  0.77076603     1.93740
Cr152      Cr  0.52420975  0.62787019  0.76852920     1.93210
Cr153      Cr  0.57456416  0.60678331  0.81576232     1.39100
O154        O  0.56210954  0.63226836  0.78561744    -1.23960
O155        O  0.36572232  0.86099349  0.76865288    -0.86210
O156        O  0.41203523  0.84719406  0.72750285    -0.83250
C157        C  0.43762988  0.83800661  0.71649589     0.97260
O158        O  0.46240029  0.84465608  0.73153449    -0.83290
O159        O  0.45794578  0.91096274  0.75098160    -0.85930
C160        C  0.45011248  0.93401589  0.76841041     1.01780
O161        O  0.43906204  0.92985691  0.79572009    -0.78690
O162        O  0.38169902  0.90847666  0.78008257    -0.78880
C163        C  0.36480598  0.89029735  0.76371418     1.01730
O164        O  0.39653862  0.81975535  0.81370447    -0.86200
O165        O  0.43984664  0.80539212  0.77318268    -0.83270
C166        C  0.46465957  0.80694942  0.78934952     0.97280
O167        O  0.47786004  0.83263210  0.79505656    -0.83290
O168        O  0.48323039  0.89336660  0.81034109    -0.85900
C169        C  0.47515392  0.88718383  0.83826799     1.01750
O170        O  0.44634071  0.88290521  0.84408038    -0.78720
O171        O  0.38433054  0.86432619  0.83607851    -0.78870
C172        C  0.38652940  0.83448694  0.83703962     1.01710
Cr173      Cr  0.40483783  0.83572463  0.77160660     1.93740
Cr174      Cr  0.46744084  0.87050573  0.77223141     1.93210
Cr175      Cr  0.41332753  0.89452653  0.81241593     1.39100
O176        O  0.42831444  0.86691897  0.78543214    -1.23960
O177        O  0.63104090  0.97205013  0.35177536    -0.86210
O178        O  0.68893005  0.95902116  0.33027300    -0.83250
C179        C  0.69626644  0.98680658  0.32251857     0.97260
O180        O  0.70137587  0.00736744  0.34358141    -0.83290
O181        O  0.70612562  0.03446946  0.40767644    -0.85930
C182        C  0.67908005  0.04469329  0.41447018     1.01780
O183        O  0.65686493  0.02977556  0.40324300    -0.78690
O184        O  0.61452291  0.98426681  0.39867452    -0.78880
C185        C  0.61275118  0.98761110  0.36921498     1.01730
O186        O  0.63869919  0.92128080  0.40082770    -0.86200
O187        O  0.70150878  0.91631742  0.38025402    -0.83270
C188        C  0.72957026  0.92436427  0.37415849     0.97280
O189        O  0.73532353  0.95273694  0.36651281    -0.83290
O190        O  0.73106256  0.97588004  0.42448460    -0.85900
C191        C  0.71805226  0.98109033  0.45033457     1.01750
O192        O  0.69096982  0.99330069  0.45225632    -0.78720
O193        O  0.65013491  0.94795561  0.44331877    -0.78870
C194        C  0.63926879  0.92368603  0.43074796     1.01710
Cr195      Cr  0.66543264  0.94373945  0.36759475     1.93740
Cr196      Cr  0.71559043  0.99197872  0.38531952     1.91770
Cr197      Cr  0.65455819  0.98832192  0.42248950     1.39100
O198        O  0.67883633  0.97378126  0.39250767    -1.23960
O199        O  0.85529048  0.96682156  0.66157633    -0.86210
O200        O  0.79731106  0.96671007  0.68751611    -0.83250
C201        C  0.78425295  0.99311740  0.68976894     0.97260
O202        O  0.77505703  0.00844171  0.66580529    -0.83290
O203        O  0.79188329  0.03185154  0.60559707    -0.85930
C204        C  0.80720436  0.03279558  0.58013031     1.01780
O205        O  0.81665338  0.00771437  0.56890769    -0.78690
O206        O  0.85622700  0.00105030  0.62202403    -0.78880
C207        C  0.86253099  0.99426598  0.65043376     1.01730
O208        O  0.82893842  0.90838076  0.62218950    -0.86200
O209        O  0.77409713  0.91815741  0.64892607    -0.83270
C210        C  0.74677414  0.92869399  0.64374933     0.97280
O211        O  0.74273344  0.95718650  0.63631063    -0.83290
O212        O  0.76462218  0.97457645  0.57818166    -0.85900
C213        C  0.77964236  0.95477915  0.56099089     1.01750
O214        O  0.80766672  0.94597697  0.56652906    -0.78720
O215        O  0.86305880  0.93826227  0.60361312    -0.78870
C216        C  0.85076905  0.91180563  0.60304458     1.01710
Cr217      Cr  0.81432275  0.94165758  0.65303497     1.93740
Cr218      Cr  0.77112239  0.99153123  0.62164247     1.93210
Cr219      Cr  0.83388172  0.97286046  0.59314746     1.39100
O220        O  0.80565964  0.96883305  0.62319452    -1.23960
O221        O  0.85889612  0.76155714  0.37802554    -0.86210
O222        O  0.84741096  0.72033578  0.42313145    -0.83250
C223        C  0.83310047  0.70651801  0.44407528     0.97260
O224        O  0.83662898  0.71816468  0.47119535    -0.83290
O225        O  0.90132939  0.74367956  0.47048798    -0.85930
C226        C  0.92322648  0.76312445  0.46512396     1.01780
O227        O  0.91703181  0.79143381  0.45791736    -0.78690
O228        O  0.90242203  0.77958045  0.39767770    -0.78880
C229        C  0.88839737  0.76037583  0.37976494     1.01730
O230        O  0.81013187  0.80131883  0.40447265    -0.86200
O231        O  0.79624101  0.75873233  0.44777084    -0.83270
C232        C  0.79485072  0.77056041  0.47520147     0.97280
O233        O  0.81906822  0.77853018  0.48990366    -0.83290
O234        O  0.87716471  0.79934588  0.50085190    -0.85900
C235        C  0.87027230  0.82771787  0.49453227     1.01750
O236        O  0.86681170  0.83589540  0.46588964    -0.78720
O237        O  0.85205074  0.83054226  0.40113679    -0.78870
C238        C  0.82272712  0.82671989  0.39688562     1.01710
Cr239      Cr  0.82991993  0.76141259  0.41486511     1.93740
Cr240      Cr  0.85914805  0.76066866  0.48010721     1.93210
Cr241      Cr  0.88256508  0.80772258  0.43081257     1.39100
O242        O  0.85652014  0.77758330  0.44189852    -1.23960
O243        O  0.62076018  0.77612438  0.64323652    -0.86210
O244        O  0.63220457  0.72722735  0.60368914    -0.83250
C245        C  0.64312124  0.71197647  0.58104142     0.97260
O246        O  0.63862318  0.72326098  0.55373335    -0.83290
O247        O  0.57569764  0.74861843  0.55057001    -0.85930
C248        C  0.55334893  0.76784345  0.55415390     1.01780
O249        O  0.55860017  0.79594730  0.56274184    -0.78690
O250        O  0.57489348  0.78336434  0.62311478    -0.78880
C251        C  0.59201932  0.76912191  0.64265913     1.01730
O252        O  0.66662285  0.81182409  0.60961163    -0.86200
O253        O  0.68089809  0.76297902  0.57288086    -0.83270
C254        C  0.68206768  0.77405494  0.54526736     0.97280
O255        O  0.65786240  0.78266755  0.53104419    -0.83290
O256        O  0.60012161  0.80413834  0.52026825    -0.85900
C257        C  0.60612798  0.83259438  0.52733690     1.01750
O258        O  0.60847943  0.84045678  0.55610899    -0.78720
O259        O  0.62263283  0.83573619  0.62056273    -0.78870
C260        C  0.65248877  0.83485101  0.62129069     1.01710
Cr261      Cr  0.64830644  0.77017097  0.60594538     1.93740
Cr262      Cr  0.61763004  0.76542676  0.54160059     1.93210
Cr263      Cr  0.59290358  0.81236208  0.59034037     1.39100
O264        O  0.61993630  0.78307762  0.57912296    -1.23960
O265        O  0.21534427  0.13578658  0.87243028    -0.86210
O266        O  0.26552923  0.09900750  0.86319316    -0.83250
C267        C  0.28154816  0.07769929  0.85142125     0.97260
O268        O  0.27301575  0.04954810  0.85693250    -0.83290
O269        O  0.24765715  0.04535282  0.92101189    -0.85930
C270        C  0.22754248  0.04729466  0.94286345     1.01780
O271        O  0.19981810  0.05611533  0.93691890    -0.78690
O272        O  0.20904854  0.11641556  0.91878349    -0.78880
C273        C  0.22279123  0.13584642  0.90118309     1.01730
O274        O  0.18248585  0.09840731  0.82674858    -0.86200
O275        O  0.23214510  0.06422110  0.81404706    -0.83270
C276        C  0.22152145  0.03646561  0.81362264     0.97280
O277        O  0.21531562  0.02225139  0.83856308    -0.83290
O278        O  0.19486535  0.01135231  0.89628582    -0.85900
C279        C  0.16599034  0.01654639  0.89103033     1.01750
O280        O  0.15618329  0.04466553  0.88754589    -0.78720
O281        O  0.15712030  0.10894502  0.87007065    -0.78870
C282        C  0.15846604  0.10857437  0.83999761     1.01710
Cr283      Cr  0.22337170  0.09793117  0.84601916     1.93740
Cr284      Cr  0.23195497  0.03487920  0.87855598     1.93210
Cr285      Cr  0.18202676  0.08143745  0.90157624     1.39100
O286        O  0.21191518  0.07111372  0.87509588    -1.23960
O287        O  0.01802278  0.15694022  0.64323559    -0.86210
O288        O  0.02939959  0.17605049  0.70255610    -0.83250
C289        C  0.00305720  0.18249649  0.71468645     0.97260
O290        O  0.98348117  0.16070524  0.72089640    -0.83290
O291        O  0.95923015  0.09541272  0.72235972    -0.85930
C292        C  0.94448101  0.09087589  0.69692931     1.01780
O293        O  0.95664470  0.10078015  0.67202682    -0.78690
O294        O  0.00006755  0.11169726  0.62650890    -0.78880
C295        C  0.00078252  0.14126804  0.62476356     1.01730
O296        O  0.06882901  0.10765901  0.65006159    -0.86200
O297        O  0.07412590  0.12636191  0.71326216    -0.83270
C298        C  0.06696538  0.13189459  0.74177935     0.97280
O299        O  0.03889130  0.13798392  0.74852063    -0.83290
O300        O  0.02073737  0.07762688  0.73900641    -0.85900
C301        C  0.01489265  0.05320844  0.72330203     1.01750
O302        O  0.99805852  0.05429772  0.69885689    -0.78720
O303        O  0.03983112  0.06596432  0.65609896    -0.78870
C304        C  0.06505946  0.07801980  0.64770639     1.01710
Cr305      Cr  0.04568891  0.13980927  0.67770493     1.93740
Cr306      Cr  0.00103060  0.11798964  0.72950359     1.93210
Cr307      Cr  0.99970685  0.08569512  0.66506402     1.39100
O308        O  0.01557180  0.11462419  0.69042053    -1.23960
O309        O  0.21483015  0.86348062  0.64464838    -0.86210
O310        O  0.26343438  0.90324386  0.65121635    -0.83250
C311        C  0.27945214  0.92500166  0.66190451     0.97260
O312        O  0.26949016  0.95270420  0.65664314    -0.83290
O313        O  0.24140189  0.95276396  0.59344923    -0.85930
C314        C  0.22066924  0.94906813  0.57237605     1.01780
O315        O  0.19309796  0.94156378  0.57993094    -0.78690
O316        O  0.20417326  0.88157488  0.59826667    -0.78880
C317        C  0.21949829  0.86270366  0.61531417     1.01730
O318        O  0.18191137  0.89949732  0.69105011    -0.86200
O319        O  0.23017900  0.93723083  0.70088608    -0.83270
C320        C  0.21913237  0.96488110  0.70118867     0.97280
O321        O  0.21165014  0.97861290  0.67626177    -0.83290
O322        O  0.18839579  0.98684668  0.61876448    -0.85900
C323        C  0.16006966  0.98137633  0.62611937     1.01750
O324        O  0.15138244  0.95307801  0.63084275    -0.78720
O325        O  0.15511424  0.88876363  0.64850602    -0.78870
C326        C  0.15803146  0.88829708  0.67837462     1.01710
Cr327      Cr  0.22197680  0.90234042  0.67005280     1.93740
Cr328      Cr  0.22695771  0.96492286  0.63596065     1.93210
Cr329      Cr  0.17750269  0.91656635  0.61614103     1.39100
O330        O  0.20816131  0.92818138  0.64118822    -1.23960
O331        O  0.02292011  0.84158772  0.87669023    -0.86210
O332        O  0.03244273  0.82067739  0.81762757    -0.83250
C333        C  0.00443852  0.81621513  0.80883472     0.97260
O334        O  0.98564091  0.83894305  0.80484326    -0.83290
O335        O  0.96469879  0.90379831  0.80123219    -0.85930
C336        C  0.95266736  0.91048243  0.82750312     1.01780
O337        O  0.96636353  0.90133347  0.85177641    -0.78690
O338        O  0.01269685  0.88876428  0.89351306    -0.78880
C339        C  0.00691350  0.85958213  0.89415174     1.01730
O340        O  0.07675100  0.88748992  0.86838447    -0.86200
O341        O  0.07847838  0.86821556  0.80496267    -0.83270
C342        C  0.06906318  0.86375152  0.77686784     0.97280
O343        O  0.04075086  0.85691685  0.77206133    -0.83290
O344        O  0.02439242  0.91686786  0.77866710    -0.85900
C345        C  0.01832536  0.94266265  0.79135169     1.01750
O346        O  0.00742584  0.94503262  0.81897535    -0.78720
O347        O  0.05200784  0.93163854  0.85920064    -0.78870
C348        C  0.07593368  0.91748955  0.86843593     1.01710
Cr349      Cr  0.05118484  0.85640690  0.84168500     1.93740
Cr350      Cr  0.00459659  0.87897642  0.79218172     1.93210
Cr351      Cr  0.01025619  0.91445006  0.85443752     1.39100
O352        O  0.02240025  0.88356815  0.82950975    -1.23960
O353        O  0.65406045  0.13542946  0.53944873    -0.86210
O354        O  0.67064805  0.19535996  0.54797580    -0.83250
C355        C  0.67704005  0.20138170  0.51941215     0.97260
O356        O  0.65534833  0.20509491  0.49949352    -0.83290
O357        O  0.59244188  0.20418481  0.47277690    -0.85930
C358        C  0.58766604  0.17636289  0.46310184     1.01780
O359        O  0.60067912  0.15525921  0.47849175    -0.78690
O360        O  0.60912763  0.11514668  0.52685273    -0.78880
C361        C  0.63854045  0.11553326  0.52398881     1.01730
O362        O  0.60362458  0.14233457  0.58901428    -0.86200
O363        O  0.61900739  0.20615541  0.59037512    -0.83270
C364        C  0.62284109  0.23424749  0.58111566     0.97280
O365        O  0.63130199  0.23941673  0.55295899    -0.83290
O366        O  0.57346288  0.22890339  0.53089178    -0.85900
C367        C  0.54915465  0.21491720  0.52256674     1.01750
O368        O  0.54997519  0.18663197  0.51280117    -0.78720
O369        O  0.56138698  0.14891955  0.56071593    -0.78870
C370        C  0.57390421  0.14109147  0.58615680     1.01710
Cr371      Cr  0.63511110  0.17002982  0.56516988     1.93740
Cr372      Cr  0.61359536  0.21669143  0.51491181     1.93210
Cr373      Cr  0.58209285  0.15286912  0.52033115     1.39100
O374        O  0.60973561  0.17995532  0.53415439    -1.23960
O375        O  0.61980544  0.35381829  0.74317211    -0.86210
O376        O  0.57254416  0.34141204  0.78390212    -0.83250
C377        C  0.54648687  0.33331573  0.79452216     0.97260
O378        O  0.52215883  0.34153165  0.77940915    -0.83290
O379        O  0.53081109  0.40820583  0.76273066    -0.85930
C380        C  0.53919078  0.43141510  0.74587262     1.01780
O381        O  0.55097183  0.42737220  0.71872718    -0.78690
O382        O  0.60767326  0.40242330  0.73216251    -0.78880
C383        C  0.62335038  0.38286602  0.74824625     1.01730
O384        O  0.58717429  0.31607392  0.69722875    -0.86200
O385        O  0.54249475  0.30352135  0.73570863    -0.83270
C386        C  0.51858636  0.30696740  0.71827746     0.97280
O387        O  0.50589215  0.33327741  0.71493816    -0.83290
O388        O  0.50481986  0.39487757  0.70244722    -0.85900
C389        C  0.51251737  0.38750645  0.67470717     1.01750
O390        O  0.54104139  0.38190509  0.66868017    -0.78720
O391        O  0.60175054  0.36005362  0.67551248    -0.78870
C392        C  0.59795282  0.33043865  0.67413735     1.01710
Cr393      Cr  0.57935545  0.33118106  0.73938367     1.93740
Cr394      Cr  0.51881986  0.36939662  0.73971903     1.93210
Cr395      Cr  0.57466651  0.39123589  0.70028671     1.39100
O396        O  0.55794848  0.36404503  0.72657767    -1.23960
O397        O  0.36443802  0.14334539  0.74288571    -0.86210
O398        O  0.40795845  0.14667253  0.78744824    -0.83250
C399        C  0.43067032  0.15642253  0.80272717     0.97260
O400        O  0.45747017  0.15086315  0.79095995    -0.83290
O401        O  0.45352415  0.08639129  0.76305676    -0.85930
C402        C  0.44619102  0.06580509  0.74251706     1.01780
O403        O  0.43730708  0.07375675  0.71525466    -0.78690
O404        O  0.38011492  0.09638549  0.73049068    -0.78880
C405        C  0.36260393  0.11396846  0.74674759     1.01730
O406        O  0.40023880  0.18750053  0.70607468    -0.86200
O407        O  0.44149003  0.19501235  0.75152902    -0.83270
C408        C  0.46648673  0.19355799  0.73553751     0.97280
O409        O  0.47994625  0.16793502  0.73061183    -0.83290
O410        O  0.48422343  0.11003956  0.70815221    -0.85900
C411        C  0.47742980  0.11771903  0.68003505     1.01750
O412        O  0.44918180  0.12417581  0.67288990    -0.78720
O413        O  0.38689082  0.14565547  0.67955691    -0.78870
C414        C  0.38831860  0.17556059  0.68200995     1.01710
Cr415      Cr  0.40490420  0.16624081  0.74635927     1.93740
Cr416      Cr  0.46597523  0.12876554  0.74784193     1.93210
Cr417      Cr  0.41381641  0.11170345  0.70114620     1.39100
O418        O  0.42840814  0.13590409  0.73113647    -1.23960
O419        O  0.33473133  0.36699095  0.53809543    -0.86210
O420        O  0.31620509  0.30771210  0.55221992    -0.83250
C421        C  0.30692967  0.30161245  0.52473617     0.97260
O422        O  0.32673745  0.29641127  0.50309960    -0.83290
O423        O  0.38832332  0.29431214  0.47152682    -0.85930
C424        C  0.39459741  0.32192880  0.46212116     1.01780
O425        O  0.38354391  0.34355583  0.47835829    -0.78690
O426        O  0.38080072  0.38421434  0.52740754    -0.78880
C427        C  0.35180080  0.38492830  0.52192001     1.01730
O428        O  0.38666079  0.35998667  0.58640584    -0.86200
O429        O  0.36834738  0.29693689  0.59173008    -0.83270
C430        C  0.36303319  0.26849210  0.58393322     0.97280
O431        O  0.35468114  0.26215549  0.55578289    -0.83290
O432        O  0.41058929  0.26833975  0.52774848    -0.85900
C433        C  0.43481328  0.28183189  0.51818862     1.01750
O434        O  0.43470557  0.31016339  0.50898901    -0.78720
O435        O  0.42789487  0.34746713  0.55849589    -0.78870
C436        C  0.41621773  0.35687526  0.58386927     1.01710
Cr437      Cr  0.35312186  0.33266334  0.56542565     1.93740
Cr438      Cr  0.36969089  0.28307896  0.51544625     1.93210
Cr439      Cr  0.40512179  0.34525511  0.51879339     1.39100
O440        O  0.37682373  0.31981765  0.53406505    -1.23960
O441        O  0.12582752  0.27881005  0.13919581    -0.86210
O442        O  0.13340256  0.22586649  0.10424602    -0.83250
C443        C  0.14491571  0.20825481  0.08393100     0.97260
O444        O  0.14016356  0.21584184  0.05544194    -0.83290
O445        O  0.07845521  0.24416001  0.04955358    -0.85930
C446        C  0.05730275  0.26495505  0.05119682     1.01780
O447        O  0.06447936  0.29329757  0.05678089    -0.78690
O448        O  0.08044300  0.28571337  0.11811303    -0.78880
C449        C  0.09689777  0.27292317  0.13919807     1.01730
O450        O  0.17345084  0.30803462  0.10200828    -0.86200
O451        O  0.18506934  0.25524835  0.07074523    -0.83270
C452        C  0.18663439  0.26322953  0.04212070     0.97280
O453        O  0.16269687  0.27074571  0.02674410    -0.83290
O454        O  0.10613880  0.29453033  0.01305776    -0.85900
C455        C  0.11184508  0.32363781  0.01719532     1.01750
O456        O  0.11504155  0.33448605  0.04497291    -0.78720
O457        O  0.13075114  0.33564104  0.10936095    -0.78870
C458        C  0.16055290  0.33368199  0.10864550     1.01710
Cr459      Cr  0.15265302  0.26747052  0.10263027     1.93740
Cr460      Cr  0.12142733  0.25744663  0.03885623     1.93210
Cr461      Cr  0.09945553  0.31058500  0.08237002     1.39100
O462        O  0.12511295  0.27916175  0.07419465    -1.23960
O463        O  0.35649833  0.46826678  0.16662312    -0.86210
O464        O  0.29682480  0.45880133  0.18439434    -0.83250
C465        C  0.28911201  0.48704015  0.19032970     0.97260
O466        O  0.28534788  0.50686152  0.16834514    -0.83290
O467        O  0.28554788  0.53146831  0.10391997    -0.85930
C468        C  0.31277649  0.54193723  0.09844390     1.01780
O469        O  0.33509295  0.52708782  0.11021426    -0.78690
O470        O  0.37524314  0.47888560  0.12042277    -0.78880
C471        C  0.37567294  0.48326542  0.14978921     1.01730
O472        O  0.35009081  0.41676533  0.11812485    -0.86200
O473        O  0.28665850  0.41490583  0.13361826    -0.83270
C474        C  0.25847180  0.42384535  0.13677308     0.97280
O475        O  0.25280302  0.45192516  0.14538604    -0.83290
O476        O  0.26213483  0.47187417  0.08689173    -0.85900
C477        C  0.27740243  0.47549320  0.06201246     1.01750
O478        O  0.30337912  0.48971500  0.06207173    -0.78720
O479        O  0.34148427  0.44279483  0.07469849    -0.78870
C480        C  0.35062912  0.41831169  0.08818534     1.01710
Cr481      Cr  0.32218136  0.44125375  0.14899880     1.93740
Cr482      Cr  0.27417393  0.48995568  0.12651075     1.93210
Cr483      Cr  0.33740932  0.48416532  0.09379350     1.39100
O484        O  0.31127168  0.47140318  0.12284068    -1.23960
O485        O  0.12814626  0.47407549  0.84933051    -0.86210
O486        O  0.18690329  0.46487026  0.82851049    -0.83250
C487        C  0.19598843  0.49322776  0.82602313     0.97260
O488        O  0.20194877  0.50991167  0.85019340    -0.83290
O489        O  0.20733450  0.52440368  0.91896116    -0.85930
C490        C  0.18099040  0.53589866  0.92637396     1.01780
O491        O  0.15840956  0.52535910  0.91167148    -0.78690
O492        O  0.11257839  0.48690302  0.89655567    -0.78880
C493        C  0.11159690  0.49137801  0.86718070     1.01730
O494        O  0.13469999  0.41666163  0.89116932    -0.86200
O495        O  0.19775452  0.41417221  0.87303013    -0.83270
C496        C  0.22609753  0.42230242  0.86896101     0.97280
O497        O  0.23200433  0.45079906  0.86271408    -0.83290
O498        O  0.22671017  0.46146667  0.92417931    -0.85900
C499        C  0.21326639  0.46378896  0.95021115     1.01750
O500        O  0.18688148  0.47731306  0.95307902    -0.78720
O501        O  0.14134114  0.43979724  0.93659920    -0.78870
C502        C  0.13218272  0.41674482  0.92103163     1.01710
Cr503      Cr  0.16233241  0.44371708  0.86239126     1.93740
Cr504      Cr  0.21398277  0.48631175  0.88863601     1.93210
Cr505      Cr  0.15133042  0.48172832  0.92231045     1.39100
O506        O  0.17565494  0.46995892  0.89136215    -1.23960
O507        O  0.35936036  0.27231809  0.87123749    -0.86210
O508        O  0.34880538  0.22358979  0.91024120    -0.83250
C509        C  0.33621437  0.20838447  0.93160190     0.97260
O510        O  0.34236375  0.21738537  0.95942454    -0.83290
O511        O  0.40611118  0.24405053  0.96125041    -0.85930
C512        C  0.42775271  0.26418484  0.95792038     1.01780
O513        O  0.42131310  0.29260122  0.95150191    -0.78690
O514        O  0.40454489  0.28349612  0.89119590    -0.78880
C515        C  0.38856071  0.26726629  0.87224632     1.01730
O516        O  0.31186522  0.30706578  0.90577590    -0.86200
O517        O  0.29964832  0.25857693  0.94219145    -0.83270
C518        C  0.29873600  0.26733765  0.97068187     0.97280
O519        O  0.32318028  0.27502640  0.98514451    -0.83290
O520        O  0.38097598  0.29720112  0.99578207    -0.85900
C521        C  0.37493375  0.32605136  0.99044484     1.01750
O522        O  0.37061328  0.33527311  0.96235480    -0.78720
O523        O  0.35443806  0.33448980  0.89858194    -0.78870
C524        C  0.32463957  0.33264883  0.89929261     1.01710
Cr525      Cr  0.33182559  0.26608430  0.90869001     1.93740
Cr526      Cr  0.36367736  0.25933979  0.97252721     1.93210
Cr527      Cr  0.38582154  0.30976878  0.92598507     1.39100
O528        O  0.35994821  0.27900568  0.93593888    -1.23960
O529        O  0.26385191  0.13585237  0.14544340    -0.86210
O530        O  0.21487208  0.09579282  0.15020345    -0.83250
C531        C  0.19921769  0.07420507  0.16202216     0.97260
O532        O  0.20918134  0.04641701  0.15708964    -0.83290
O533        O  0.23788590  0.04429837  0.09443176    -0.85930
C534        C  0.25862613  0.04778281  0.07342082     1.01780
O535        O  0.28558383  0.05763949  0.08074844    -0.78690
O536        O  0.27220029  0.11737964  0.09906430    -0.78880
C537        C  0.25731525  0.13614228  0.11657065     1.01730
O538        O  0.29578376  0.10054563  0.19228502    -0.86200
O539        O  0.24699419  0.06368448  0.20180790    -0.83270
C540        C  0.25885452  0.03646091  0.20294039     0.97280
O541        O  0.26708230  0.02238877  0.17838077    -0.83290
O542        O  0.29153622  0.01290335  0.12140875    -0.85900
C543        C  0.31960801  0.01970787  0.12868023     1.01750
O544        O  0.32715717  0.04843140  0.13236116    -0.78720
O545        O  0.32236624  0.11167453  0.14974891    -0.78870
C546        C  0.32005836  0.11111244  0.17973450     1.01710
Cr547      Cr  0.25577751  0.09769848  0.17070035     1.93740
Cr548      Cr  0.25213298  0.03426213  0.13748991     1.93210
Cr549      Cr  0.30024114  0.08356617  0.11707656     1.39100
O550        O  0.27007157  0.07149412  0.14224815    -1.23960
O551        O  0.45766796  0.16096559  0.37572620    -0.86210
O552        O  0.44851883  0.17801100  0.31536253    -0.83250
C553        C  0.47628462  0.18360711  0.30676031     0.97260
O554        O  0.49607026  0.16148396  0.30403122    -0.83290
O555        O  0.52171792  0.09812215  0.30857719    -0.85930
C556        C  0.53188134  0.09301270  0.33627353     1.01780
O557        O  0.51606081  0.10332713  0.35879675    -0.78690
O558        O  0.46488034  0.11500570  0.39560074    -0.78880
C559        C  0.47215080  0.14373372  0.39502098     1.01730
O560        O  0.40539054  0.11205575  0.36784034    -0.86200
O561        O  0.40477580  0.12861444  0.30438449    -0.83270
C562        C  0.41421045  0.13151331  0.27617076     0.97280
O563        O  0.44298462  0.13661475  0.27086851    -0.83290
O564        O  0.46374648  0.07799380  0.28274075    -0.85900
C565        C  0.47074884  0.05389499  0.29819905     1.01750
O566        O  0.48113445  0.05551596  0.32594844    -0.78720
O567        O  0.43205976  0.06900688  0.35952237    -0.78870
C568        C  0.40672144  0.08210207  0.36608408     1.01710
Cr569      Cr  0.43079417  0.14307941  0.34084422     1.93740
Cr570      Cr  0.48023609  0.11890692  0.29434681     1.93210
Cr571      Cr  0.47295814  0.08777560  0.35859694     1.39100
O572        O  0.46101039  0.11636916  0.33107736    -1.23960
O573        O  0.26516400  0.86394563  0.37155356    -0.86210
O574        O  0.21658269  0.90296776  0.36021974    -0.83250
C575        C  0.20144577  0.92579344  0.34978489     0.97260
O576        O  0.21129586  0.95317322  0.35641413    -0.83290
O577        O  0.23521194  0.95401441  0.42026515    -0.85930
C578        C  0.25461811  0.95134423  0.44259788     1.01780
O579        O  0.28261770  0.94285355  0.43735248    -0.78690
O580        O  0.27359399  0.88270439  0.41831144    -0.78880
C581        C  0.25947349  0.86336813  0.40077141     1.01730
O582        O  0.30137251  0.90012460  0.32735516    -0.86200
O583        O  0.25353443  0.93686091  0.31389098    -0.83270
C584        C  0.26330124  0.96492521  0.31452242     0.97280
O585        O  0.26967399  0.97877668  0.33967967    -0.83290
O586        O  0.28939194  0.98746785  0.39840655    -0.85900
C587        C  0.31752697  0.98207617  0.39053139     1.01750
O588        O  0.32684128  0.95378299  0.38771562    -0.78720
O589        O  0.32602670  0.88981354  0.37106680    -0.78870
C590        C  0.32527166  0.89008173  0.34104157     1.01710
Cr591      Cr  0.25973900  0.90240010  0.34526115     1.93740
Cr592      Cr  0.25220008  0.96548531  0.37901848     1.93210
Cr593      Cr  0.30073407  0.91758029  0.40189407     1.39100
O594        O  0.27120412  0.92854237  0.37513109    -1.23960
O595        O  0.46053000  0.84331274  0.14318961    -0.86210
O596        O  0.45001374  0.82304461  0.20251066    -0.83250
C597        C  0.47768712  0.81493420  0.20955771     0.97260
O598        O  0.49887710  0.83520972  0.21382394    -0.83290
O599        O  0.52924210  0.89596592  0.21513613    -0.85930
C600        C  0.53991122  0.90052514  0.18763625     1.01780
O601        O  0.52290804  0.89260852  0.16518655    -0.78690
O602        O  0.47360686  0.88937314  0.12601037    -0.78880
C603        C  0.47585606  0.85979317  0.12394420     1.01730
O604        O  0.41333913  0.89581193  0.15331309    -0.86200
O605        O  0.41063543  0.87570891  0.21619034    -0.83270
C606        C  0.41897263  0.86893524  0.24407959     0.97280
O607        O  0.44731099  0.86135407  0.24953779    -0.83290
O608        O  0.47330186  0.91811242  0.24227837    -0.85900
C609        C  0.48167730  0.94272534  0.22863016     1.01750
O610        O  0.49238081  0.94287097  0.20083686    -0.78720
O611        O  0.44272260  0.93605835  0.16450399    -0.78870
C612        C  0.41717524  0.92558351  0.15493930     1.01710
Cr613      Cr  0.43541449  0.86118407  0.17912042     1.93740
Cr614      Cr  0.48624893  0.87749080  0.22743785     1.93210
Cr615      Cr  0.48213705  0.91328853  0.16555832     1.39100
O616        O  0.46737887  0.88444145  0.19095041    -1.23960
O617        O  0.13001363  0.14193891  0.28070265    -0.86210
O618        O  0.09082480  0.15183958  0.23218836    -0.83250
C619        C  0.06850916  0.16322331  0.21727834     0.97260
O620        O  0.04142119  0.15491581  0.22608364    -0.83290
O621        O  0.04488228  0.08942851  0.24978333    -0.85930
C622        C  0.04972199  0.06780860  0.26981708     1.01780
O623        O  0.05412661  0.07449620  0.29846649    -0.78690
O624        O  0.11302380  0.09490708  0.29032095    -0.78880
C625        C  0.13130306  0.11273583  0.27535722     1.01730
O626        O  0.09338873  0.18535222  0.31736371    -0.86200
O627        O  0.05531158  0.19708572  0.27007553    -0.83270
C628        C  0.02780567  0.19480504  0.28096605     0.97280
O629        O  0.01465572  0.16879322  0.28451647    -0.83290
O630        O  0.00824127  0.11033490  0.30364985    -0.85900
C631        C  0.01240123  0.11748708  0.33244396     1.01750
O632        O  0.03993962  0.12285470  0.34254226    -0.78720
O633        O  0.10321654  0.14177563  0.34269280    -0.78870
C634        C  0.10282569  0.17170897  0.34159265     1.01710
Cr635      Cr  0.09101037  0.16703221  0.27554830     1.93740
Cr636      Cr  0.03019483  0.13052964  0.26671749     1.93210
Cr637      Cr  0.07731755  0.11032577  0.31699743     1.39100
O638        O  0.06603222  0.13644786  0.28700559    -1.23960
O639        O  0.14927243  0.37009086  0.47743464    -0.86210
O640        O  0.16966803  0.31090230  0.46814174    -0.83250
C641        C  0.17562378  0.30301521  0.49628700     0.97260
O642        O  0.15385176  0.29908334  0.51614143    -0.83290
O643        O  0.08988629  0.29811752  0.54103048    -0.85930
C644        C  0.08320454  0.32563141  0.55059876     1.01780
O645        O  0.09516679  0.34771770  0.53573480    -0.78690
O646        O  0.10273856  0.38775542  0.48677880    -0.78880
C647        C  0.13171409  0.38891368  0.49219125     1.01730
O648        O  0.10076023  0.36033059  0.42515154    -0.86200
O649        O  0.12085622  0.29762629  0.42397705    -0.83270
C650        C  0.12579317  0.26964718  0.43329461     0.97280
O651        O  0.13191611  0.26446602  0.46209403    -0.83290
O652        O  0.07341466  0.27248610  0.48207770    -0.85900
C653        C  0.04816812  0.28640329  0.48779418     1.01750
O654        O  0.04771932  0.31360677  0.49992442    -0.78720
O655        O  0.05831410  0.35058827  0.45203498    -0.78870
C656        C  0.07097396  0.35818216  0.42668827     1.01710
Cr657      Cr  0.13335894  0.33458887  0.45026578     1.93740
Cr658      Cr  0.11256745  0.28635030  0.49957808     1.93210
Cr659      Cr  0.07799165  0.34867488  0.49310145     1.39100
O660        O  0.10760213  0.32300611  0.48034496    -1.23960
O661        O  0.85936439  0.36434456  0.26579030    -0.86210
O662        O  0.90545734  0.35351775  0.22489922    -0.83250
C663        C  0.92783879  0.33946425  0.21278885     0.97260
O664        O  0.95418672  0.34466453  0.22534527    -0.83290
O665        O  0.95185656  0.41077372  0.24887845    -0.85930
C666        C  0.94675555  0.43280359  0.26855152     1.01780
O667        O  0.93570313  0.42704301  0.29561659    -0.78690
O668        O  0.87653661  0.40964498  0.28298401    -0.78880
C669        C  0.85936520  0.39401771  0.26436442     1.01730
O670        O  0.88701740  0.31828094  0.30689790    -0.86200
O671        O  0.93130436  0.30485089  0.26659716    -0.83270
C672        C  0.95700274  0.30496266  0.28147198     0.97280
O673        O  0.97121069  0.33003004  0.28732986    -0.83290
O674        O  0.97976731  0.38919349  0.30603637    -0.85900
C675        C  0.97276636  0.38104672  0.33379539     1.01750
O676        O  0.94410441  0.37698560  0.34074134    -0.78720
O677        O  0.88074379  0.36125370  0.33455242    -0.78870
C678        C  0.87807955  0.33159368  0.33151480     1.01710
Cr679      Cr  0.89723260  0.33720816  0.26675796     1.93740
Cr680      Cr  0.96116724  0.36904353  0.26724772     1.93210
Cr681      Cr  0.90967197  0.39192043  0.31187976     1.39100
O682        O  0.92245481  0.36579342  0.28249191    -1.23960
O683        O  0.83270788  0.13646719  0.46771908    -0.86210
O684        O  0.81447888  0.19606302  0.45969250    -0.83250
C685        C  0.80804135  0.20223473  0.48821155     0.97260
O686        O  0.82977782  0.20626768  0.50802960    -0.83290
O687        O  0.89261642  0.20634078  0.53402687    -0.85930
C688        C  0.89804995  0.17887444  0.54425239     1.01780
O689        O  0.88751408  0.15645211  0.52852304    -0.78690
O690        O  0.87846727  0.11759862  0.47868119    -0.78880
C691        C  0.84926725  0.11759872  0.48333242     1.01730
O692        O  0.88213501  0.14465961  0.41743898    -0.86200
O693        O  0.86435579  0.20837965  0.41648632    -0.83270
C694        C  0.85926458  0.23628193  0.42601900     0.97280
O695        O  0.85281233  0.24113282  0.45476994    -0.83290
O696        O  0.91116380  0.23151165  0.47576467    -0.85900
C697        C  0.93601060  0.21720271  0.48241677     1.01750
O698        O  0.93577394  0.18961330  0.49359648    -0.78720
O699        O  0.92470713  0.15253058  0.44498993    -0.78870
C700        C  0.91188916  0.14381888  0.42000396     1.01710
Cr701      Cr  0.85031003  0.17160233  0.44193607     1.93740
Cr702      Cr  0.87130747  0.21856499  0.49224411     1.93210
Cr703      Cr  0.90466664  0.15547095  0.48586543     1.39100
O704        O  0.87588214  0.18199706  0.47278331    -1.23960
O705        O  0.12588594  0.86501375  0.23611703    -0.86210
O706        O  0.08674099  0.85746881  0.28561973    -0.83250
C707        C  0.06488572  0.84663059  0.30161621     0.97260
O708        O  0.03738064  0.85200527  0.29150424    -0.83290
O709        O  0.03635618  0.91518403  0.26439272    -0.85930
C710        C  0.03984788  0.93649302  0.24390486     1.01780
O711        O  0.04640633  0.92968463  0.21564280    -0.78690
O712        O  0.10634952  0.91130516  0.22653846    -0.78880
C713        C  0.12622134  0.89434319  0.24063146     1.01730
O714        O  0.09008962  0.81890530  0.20257123    -0.86200
O715        O  0.05401209  0.80828458  0.25185283    -0.83270
C716        C  0.02662287  0.80787647  0.24049076     0.97280
O717        O  0.01250276  0.83260073  0.23332258    -0.83290
O718        O  0.00256650  0.89019633  0.21057614    -0.85900
C719        C  0.00822299  0.88208825  0.18229168     1.01750
O720        O  0.03630502  0.87796151  0.17346057    -0.78720
O721        O  0.09960799  0.86184114  0.17604107    -0.78870
C722        C  0.09919413  0.83190691  0.17782007     1.01710
Cr723      Cr  0.08776578  0.83932945  0.24345321     1.93740
Cr724      Cr  0.02484085  0.87286155  0.24921639     1.93210
Cr725      Cr  0.07195673  0.89358475  0.19952318     1.39100
O726        O  0.06138165  0.86818911  0.23024444    -1.23960
O727        O  0.15334553  0.63618714  0.04431150    -0.86210
O728        O  0.16839874  0.69689933  0.05256942    -0.83250
C729        C  0.17546827  0.70469335  0.02466651     0.97260
O730        O  0.15445608  0.70647357  0.00360593    -0.83290
O731        O  0.09187199  0.70177506  0.97460433    -0.85930
C732        C  0.08743189  0.67356008  0.96548983     1.01780
O733        O  0.10038732  0.65290100  0.98146956    -0.78690
O734        O  0.10910999  0.61480479  0.03109969    -0.78880
C735        C  0.13872804  0.61534418  0.02930297     1.01730
O736        O  0.10113746  0.64257038  0.09210705    -0.86200
O737        O  0.11587392  0.70679918  0.09323792    -0.83270
C738        C  0.12076625  0.73481611  0.08433694     0.97280
O739        O  0.12711044  0.74029127  0.05559568    -0.83290
O740        O  0.07076816  0.72774776  0.03204748    -0.85900
C741        C  0.04705203  0.71373561  0.02229098     1.01750
O742        O  0.04825595  0.68510870  0.01350465    -0.78720
O743        O  0.05972043  0.64928977  0.06284226    -0.78870
C744        C  0.07146903  0.64123963  0.08851028     1.01710
Cr745      Cr  0.13287545  0.67076202  0.06877620     1.93740
Cr746      Cr  0.11152381  0.71629299  0.01728181     1.93210
Cr747      Cr  0.08121401  0.65198732  0.02300006     1.39100
O748        O  0.10820953  0.67977380  0.03685147    -1.23960
O749        O  0.86234194  0.64384916  0.24222765    -0.86210
O750        O  0.90513610  0.64965418  0.28961809    -0.83250
C751        C  0.93018916  0.65643730  0.30329964     0.97260
O752        O  0.95575488  0.64862886  0.29011919    -0.83290
O753        O  0.95015216  0.58501412  0.26342717    -0.85930
C754        C  0.94384575  0.56419944  0.24289084     1.01780
O755        O  0.93223830  0.57195727  0.21666669    -0.78690
O756        O  0.87566230  0.59577351  0.23310061    -0.78880
C757        C  0.85968208  0.61520121  0.24901181     1.01730
O758        O  0.89980721  0.68544453  0.20530050    -0.86200
O759        O  0.93953804  0.69314971  0.25177339    -0.83270
C760        C  0.96565691  0.69163641  0.23800236     0.97280
O761        O  0.97746367  0.66598655  0.22983671    -0.83290
O762        O  0.97966619  0.60736545  0.20760045    -0.85900
C763        C  0.97260082  0.61547391  0.17978229     1.01750
O764        O  0.94413496  0.62155070  0.17308456    -0.78720
O765        O  0.88238688  0.64397003  0.18087912    -0.78870
C766        C  0.88633121  0.67367189  0.18195375     1.01710
Cr767      Cr  0.90283719  0.66585677  0.24650038     1.93740
Cr768      Cr  0.96283989  0.62677297  0.24729640     1.93210
Cr769      Cr  0.90910565  0.60991732  0.20252276     1.39100
O770        O  0.92503667  0.63427365  0.23192364    -1.23960
O771        O  0.83104434  0.86777651  0.04187286    -0.86210
O772        O  0.81441396  0.80830698  0.05442722    -0.83250
C773        C  0.80632549  0.80068915  0.02688436     0.97260
O774        O  0.82698610  0.79639844  0.00581112    -0.83290
O775        O  0.88996206  0.79588392  0.97660557    -0.85930
C776        C  0.89510641  0.82326431  0.96577504     1.01780
O777        O  0.88411245  0.84531136  0.98129147    -0.78690
O778        O  0.87578133  0.88708108  0.02664703    -0.78880
C779        C  0.84613641  0.88641866  0.02459753     1.01730
O780        O  0.88198364  0.86296581  0.09053834    -0.86200
O781        O  0.86660899  0.79937307  0.09512785    -0.83270
C782        C  0.86125328  0.77089135  0.08802482     0.97280
O783        O  0.85364906  0.76405260  0.05981383    -0.83290
O784        O  0.91025657  0.77253800  0.03508369    -0.85900
C785        C  0.93458235  0.78527363  0.02517730     1.01750
O786        O  0.93441943  0.81363075  0.01548148    -0.78720
O787        O  0.92412940  0.85314593  0.06312355    -0.78870
C788        C  0.91162173  0.86130234  0.08848548     1.01710
Cr789      Cr  0.85030842  0.83433564  0.06872359     1.93740
Cr790      Cr  0.86979865  0.78511291  0.02001144     1.93210
Cr791      Cr  0.90293908  0.84853693  0.02258315     1.39100
O792        O  0.87481805  0.82258533  0.03761309    -1.23960
O793        O  0.35679623  0.53119479  0.35005772    -0.86210
O794        O  0.29743555  0.54367014  0.33153508    -0.83250
C795        C  0.29153502  0.51614510  0.32211606     0.97260
O796        O  0.28776416  0.49418221  0.34192318    -0.83290
O797        O  0.28791168  0.46228792  0.40282109    -0.85930
C798        C  0.31538990  0.45238877  0.40844936     1.01780
O799        O  0.33740473  0.46949539  0.39983944    -0.78690
O800        O  0.37534181  0.52008546  0.39618624    -0.78880
C801        C  0.37628214  0.51633618  0.36675895     1.01730
O802        O  0.34941480  0.57843806  0.40232019    -0.86200
O803        O  0.28568964  0.58234932  0.38501558    -0.83270
C804        C  0.25784561  0.57331225  0.37948623     0.97280
O805        O  0.25265213  0.54518365  0.37061433    -0.83290
O806        O  0.26108030  0.51742460  0.42687314    -0.85900
C807        C  0.27491846  0.50843695  0.45138009     1.01750
O808        O  0.30293405  0.49894441  0.45055265    -0.78720
O809        O  0.33782565  0.55020652  0.44347611    -0.78870
C810        C  0.34845397  0.57511099  0.43209820     1.01710
Cr811      Cr  0.32208719  0.55720638  0.36887476     1.93740
Cr812      Cr  0.27504446  0.50571091  0.38530066     1.93210
Cr813      Cr  0.33698689  0.51039746  0.42070848     1.39100
O814        O  0.31102765  0.52497741  0.39222207    -1.23960
O815        O  0.12476959  0.53406416  0.66816668    -0.86210
O816        O  0.18434032  0.54804332  0.68633402    -0.83250
C817        C  0.19240648  0.52063736  0.69458515     0.97260
O818        O  0.19603796  0.49922668  0.67406459    -0.83290
O819        O  0.19393076  0.46839062  0.61190401    -0.85930
C820        C  0.16630668  0.45908760  0.60582618     1.01780
O821        O  0.14462476  0.47539274  0.61672497    -0.78690
O822        O  0.10610476  0.52585923  0.62196206    -0.78880
C823        C  0.10576843  0.51925192  0.65083076     1.01730
O824        O  0.13089276  0.58412681  0.61690864    -0.86200
O825        O  0.19467682  0.58860940  0.63472555    -0.83270
C826        C  0.22303232  0.58012183  0.63904471     0.97280
O827        O  0.22923707  0.55139114  0.64522330    -0.83290
O828        O  0.21982059  0.52447192  0.58861883    -0.85900
C829        C  0.20537602  0.51539876  0.56453449     1.01750
O830        O  0.17730129  0.50632612  0.56562136    -0.78720
O831        O  0.14199599  0.55674518  0.57480215    -0.78870
C832        C  0.13146727  0.58143857  0.58696812     1.01710
Cr833      Cr  0.15881581  0.56199327  0.64975644     1.93740
Cr834      Cr  0.20693121  0.51182135  0.63034074     1.93210
Cr835      Cr  0.14390203  0.51667772  0.59658990     1.39100
O836        O  0.17041154  0.53090880  0.62487766    -1.23960
O837        O  0.12781068  0.72404987  0.37022669    -0.86210
O838        O  0.13731177  0.77277214  0.40945932    -0.83250
C839        C  0.14896348  0.78783125  0.43156944     0.97260
O840        O  0.14112318  0.77916054  0.45908060    -0.83290
O841        O  0.07654209  0.75439044  0.45802214    -0.85930
C842        C  0.05462650  0.73466084  0.45437226     1.01780
O843        O  0.06087593  0.70651615  0.44668543    -0.78690
O844        O  0.08107145  0.71615163  0.38756893    -0.78880
C845        C  0.09904485  0.73123855  0.36960008     1.01730
O846        O  0.17196536  0.68792096  0.40795506    -0.86200
O847        O  0.18335124  0.73675717  0.44476385    -0.83270
C848        C  0.18220881  0.72829716  0.47337057     0.97280
O849        O  0.15697209  0.72073693  0.48597436    -0.83290
O850        O  0.09847444  0.70020651  0.49299032    -0.85900
C851        C  0.10427256  0.67127826  0.48757727     1.01750
O852        O  0.10919852  0.66221907  0.45950243    -0.78720
O853        O  0.12851316  0.66325342  0.39668260    -0.78870
C854        C  0.15824175  0.66344350  0.39936199     1.01710
Cr855      Cr  0.15321369  0.72977361  0.40930614     1.93740
Cr856      Cr  0.11792858  0.73779411  0.47111775     1.93210
Cr857      Cr  0.09675084  0.68859906  0.42279031     1.39100
O858        O  0.12306870  0.71813511  0.43468360    -1.23960
O859        O  0.35999569  0.74200137  0.64001450    -0.86210
O860        O  0.34420916  0.78216420  0.59641896    -0.83250
C861        C  0.33118662  0.79530119  0.57397047     0.97260
O862        O  0.33558193  0.78286715  0.54728013    -0.83290
O863        O  0.40063487  0.75777961  0.54658233    -0.85930
C864        C  0.42257543  0.73808649  0.55125610     1.01780
O865        O  0.41640259  0.71033640  0.56046422    -0.78690
O866        O  0.40233380  0.72044667  0.62050104    -0.78880
C867        C  0.38957384  0.74116904  0.63755842     1.01730
O868        O  0.31033853  0.70000290  0.61535052    -0.86200
O869        O  0.29524130  0.74218472  0.57187494    -0.83270
C870        C  0.29436455  0.73154679  0.54389417     0.97280
O871        O  0.31832678  0.72228071  0.52967598    -0.83290
O872        O  0.37669137  0.70208739  0.51762585    -0.85900
C873        C  0.37028054  0.67382547  0.52430336     1.01750
O874        O  0.36567432  0.66652954  0.55281795    -0.78720
O875        O  0.35164033  0.66973836  0.61606878    -0.78870
C876        C  0.32233258  0.67353979  0.62010588     1.01710
Cr877      Cr  0.32936499  0.74027557  0.60438404     1.93740
Cr878      Cr  0.35829694  0.74060365  0.53846919     1.93210
Cr879      Cr  0.38196252  0.69368373  0.58739304     1.39100
O880        O  0.35619670  0.72442232  0.57700008    -1.23960
O881        O  0.85805520  0.22332975  0.14397092    -0.86210
O882        O  0.84873594  0.27511332  0.10895032    -0.83250
C883        C  0.83702808  0.29237624  0.08854121     0.97260
O884        O  0.84218383  0.28483807  0.06012507    -0.83290
O885        O  0.90450049  0.25771966  0.05572937    -0.85930
C886        C  0.92602399  0.23730776  0.05681165     1.01780
O887        O  0.91950767  0.20865623  0.06187788    -0.78690
O888        O  0.90317016  0.21430915  0.12260764    -0.78880
C889        C  0.88725121  0.22802022  0.14350437     1.01730
O890        O  0.81028401  0.19206473  0.10712456    -0.86200
O891        O  0.79811657  0.24368421  0.07459344    -0.83270
C892        C  0.79743854  0.23616810  0.04571146     0.97280
O893        O  0.82160804  0.22992323  0.03023768    -0.83290
O894        O  0.87913962  0.20722935  0.01797725    -0.85900
C895        C  0.87233288  0.17835288  0.02159373     1.01750
O896        O  0.86837502  0.16722307  0.04901150    -0.78720
O897        O  0.85335868  0.16472085  0.11324697    -0.78870
C898        C  0.82357846  0.16662493  0.11349107     1.01710
Cr899      Cr  0.83061291  0.23303413  0.10716777     1.93740
Cr900      Cr  0.86228320  0.24378312  0.04371612     1.93210
Cr901      Cr  0.88427833  0.19034107  0.08665024     1.39100
O902        O  0.85844817  0.22175248  0.07887170    -1.23960
O903        O  0.62867103  0.02658286  0.16555122    -0.86210
O904        O  0.68658121  0.04035180  0.18536889    -0.83250
C905        C  0.69671271  0.01265448  0.19019165     0.97260
O906        O  0.70365061  0.99445912  0.16747818    -0.83290
O907        O  0.70849323  0.97393994  0.10200096    -0.85930
C908        C  0.68356273  0.95897419  0.09666193     1.01780
O909        O  0.65850112  0.97037245  0.10663044    -0.78690
O910        O  0.61252008  0.01269790  0.11902397    -0.78880
C911        C  0.61263646  0.00835096  0.14839793     1.01730
O912        O  0.63230052  0.08047045  0.11903804    -0.86200
O913        O  0.69491670  0.08740989  0.13663261    -0.83270
C914        C  0.72345800  0.08054783  0.14153856     0.97280
O915        O  0.73065203  0.05278232  0.14917801    -0.83290
O916        O  0.72423126  0.03619819  0.08823323    -0.85900
C917        C  0.71020516  0.03079112  0.06277624     1.01750
O918        O  0.68555578  0.01433793  0.06184884    -0.78720
O919        O  0.64130034  0.05493303  0.07528309    -0.78870
C920        C  0.63134369  0.07887339  0.08914563     1.01710
Cr921      Cr  0.66101025  0.05722606  0.14981257     1.93740
Cr922      Cr  0.71389549  0.01473251  0.12687483     1.93210
Cr923      Cr  0.65089801  0.01383730  0.09292961     1.39100
O924        O  0.67502466  0.02888853  0.12301085    -1.23960
O925        O  0.86059233  0.03216962  0.85145820    -0.86210
O926        O  0.80302843  0.04292335  0.82768388    -0.83250
C927        C  0.79350475  0.01529102  0.82194259     0.97260
O928        O  0.78548379  0.99689283  0.84426659    -0.83290
O929        O  0.77946304  0.97633827  0.91168640    -0.85930
C930        C  0.80453892  0.96324519  0.92093703     1.01780
O931        O  0.82977807  0.97513515  0.91246563    -0.78690
O932        O  0.87471925  0.01640225  0.89847843    -0.78880
C933        C  0.87655352  0.01417414  0.86892176     1.01730
O934        O  0.85216907  0.08638018  0.89492765    -0.86200
O935        O  0.79023952  0.09008045  0.87510725    -0.83270
C936        C  0.76189228  0.08269585  0.86990284     0.97280
O937        O  0.75588814  0.05447253  0.86266569    -0.83290
O938        O  0.76010586  0.03822764  0.92359088    -0.85900
C939        C  0.77356192  0.03481278  0.94966926     1.01750
O940        O  0.79963717  0.02106256  0.95209765    -0.78720
O941        O  0.84281228  0.06205255  0.93900032    -0.78870
C942        C  0.85091121  0.08628298  0.92464669     1.01710
Cr943      Cr  0.82587784  0.06103609  0.86430695     1.93740
Cr944      Cr  0.77351312  0.01686008  0.88547611     1.93210
Cr945      Cr  0.83529341  0.01961122  0.92291860     1.39100
O946        O  0.81188814  0.03241157  0.89090065    -1.23960
O947        O  0.62196723  0.24734830  0.87873429    -0.86210
O948        O  0.63644053  0.28415274  0.92485923    -0.83250
C949        C  0.65136127  0.29612332  0.94664585     0.97260
O950        O  0.64711528  0.28355913  0.97301685    -0.83290
O951        O  0.58166073  0.25752542  0.96981051    -0.85930
C952        C  0.56036424  0.23757593  0.96309965     1.01780
O953        O  0.56759075  0.20965584  0.95500847    -0.78690
O954        O  0.58283557  0.21807420  0.89473548    -0.78880
C955        C  0.59310862  0.24132691  0.87913524     1.01730
O956        O  0.67265665  0.20529278  0.89762804    -0.86200
O957        O  0.68720460  0.24257045  0.94517560    -0.83270
C958        C  0.68892908  0.23062894  0.97254220     0.97280
O959        O  0.66519979  0.22354500  0.98860447    -0.83290
O960        O  0.60597228  0.20300572  0.00005852    -0.85900
C961        C  0.61364413  0.17488292  0.99431119     1.01750
O962        O  0.61916883  0.16692240  0.96607341    -0.78720
O963        O  0.63634064  0.16984878  0.90365187    -0.78870
C964        C  0.66425326  0.17721645  0.89632352     1.01710
Cr965      Cr  0.65274189  0.24346710  0.91326479     1.93740
Cr966      Cr  0.62442697  0.24117600  0.97944978     1.93210
Cr967      Cr  0.60347306  0.19318589  0.92990995     1.39100
O968        O  0.62743494  0.22520921  0.94055105    -1.23960
O969        O  0.71535517  0.63766597  0.37578874    -0.86210
O970        O  0.76753730  0.60051931  0.36918385    -0.83250
C971        C  0.78442671  0.57909004  0.35822577     0.97260
O972        O  0.77420710  0.55116892  0.36072779    -0.83290
O973        O  0.74474509  0.54595880  0.42146987    -0.85930
C974        C  0.72425850  0.54891365  0.44266119     1.01780
O975        O  0.69629322  0.55615721  0.43550459    -0.78690
O976        O  0.70573903  0.61690180  0.42065546    -0.78880
C977        C  0.72100190  0.63662970  0.40483326     1.01730
O978        O  0.68723406  0.60335670  0.32609882    -0.86200
O979        O  0.73779521  0.56988491  0.31597906    -0.83270
C980        C  0.72606859  0.54281476  0.31275074     0.97280
O981        O  0.71816814  0.52656556  0.33612189    -0.83290
O982        O  0.69321657  0.51265135  0.39299827    -0.85900
C983        C  0.66477212  0.51830252  0.38614713     1.01750
O984        O  0.65558288  0.54646627  0.38252407    -0.78720
O985        O  0.65719101  0.60985413  0.36710955    -0.78870
C986        C  0.66081844  0.60949777  0.33722347     1.01710
Cr987      Cr  0.72646432  0.60153474  0.34862017     1.93740
Cr988      Cr  0.73161364  0.53661641  0.37820908     1.93210
Cr989      Cr  0.68040342  0.58240746  0.39979256     1.39100
O990        O  0.71225004  0.57323635  0.37505787    -1.23960
O991        O  0.51889966  0.65936582  0.14150614    -0.86210
O992        O  0.53184256  0.67408049  0.20164726    -0.83250
C993        C  0.50451717  0.68271583  0.20892806     0.97260
O994        O  0.48376753  0.66237121  0.21557145    -0.83290
O995        O  0.45512990  0.59884069  0.21834817    -0.85930
C996        C  0.44297772  0.59504979  0.19158398     1.01780
O997        O  0.45626148  0.60906070  0.16994349    -0.78690
O998        O  0.49652959  0.61691808  0.12328063    -0.78880
C999        C  0.49848944  0.64650912  0.12414106     1.01730
O1000       O  0.56618299  0.60567687  0.14649571    -0.86200
O1001       O  0.57212245  0.62120819  0.20957821    -0.83270
C1002       C  0.56598851  0.62686302  0.23823771     0.97280
O1003       O  0.53844936  0.63546013  0.24549765    -0.83290
O1004       O  0.51402281  0.57778672  0.23593454    -0.85900
C1005       C  0.50590431  0.55388708  0.22051653     1.01750
O1006       O  0.49290903  0.55565703  0.19372204    -0.78720
O1007       O  0.53376420  0.56631272  0.14945368    -0.78870
C1008       C  0.56057050  0.57637224  0.14386400     1.01710
Cr1009     Cr  0.54541663  0.63833788  0.17496002     1.93740
Cr1010     Cr  0.49849596  0.61913025  0.22576045     1.93210
Cr1011     Cr  0.49577002  0.58876052  0.16052073     1.39100
O1012       O  0.51403368  0.61469290  0.18696833    -1.23960
O1013       O  0.72182878  0.37052386  0.15007258    -0.86210
O1014       O  0.76806456  0.41324085  0.15548107    -0.83250
C1015       C  0.78265799  0.43764617  0.16252810     0.97260
O1016       O  0.76975691  0.46394632  0.15685165    -0.83290
O1017       O  0.74324789  0.45885487  0.09473987    -0.85930
C1018       C  0.72361768  0.45307203  0.07333532     1.01780
O1019       O  0.69640808  0.44351475  0.08036913    -0.78690
O1020       O  0.71160385  0.38571165  0.10255959    -0.78880
C1021       C  0.72727020  0.36848598  0.12093305     1.01730
O1022       O  0.68544315  0.40703296  0.19356434    -0.86200
O1023       O  0.73182946  0.44758442  0.20208944    -0.83270
C1024       C  0.71976679  0.47478664  0.20044925     0.97280
O1025       O  0.71074319  0.48677164  0.17520893    -0.83290
O1026       O  0.68739510  0.48982017  0.11705748    -0.85900
C1027       C  0.65964720  0.48267292  0.12484371     1.01750
O1028       O  0.65312302  0.45405903  0.13063065    -0.78720
O1029       O  0.66053809  0.39176350  0.15136506    -0.78870
C1030       C  0.66225212  0.39397798  0.18127373     1.01710
Cr1031     Cr  0.72604445  0.41092244  0.17335873     1.93740
Cr1032     Cr  0.72707750  0.47202189  0.13587630     1.93210
Cr1033     Cr  0.68196586  0.41924796  0.11790025     1.39100
O1034       O  0.71117641  0.43426330  0.14282634    -1.23960
O1035       O  0.52285230  0.34148557  0.37516714    -0.86210
O1036       O  0.53502619  0.32221591  0.31567702    -0.83250
C1037       C  0.50763222  0.31436239  0.30803333     0.97260
O1038       O  0.48664205  0.33523882  0.30488211    -0.83290
O1039       O  0.45765638  0.39782050  0.30526295    -0.85930
C1040       C  0.44878886  0.40537269  0.33276831     1.01780
O1041       O  0.46497594  0.39554908  0.35509261    -0.78690
O1042       O  0.51461737  0.38819304  0.39338332    -0.78880
C1043       C  0.50837508  0.35917224  0.39411538     1.01730
O1044       O  0.57333061  0.39094298  0.36795820    -0.86200
O1045       O  0.57617711  0.37301853  0.30443667    -0.83270
C1046       C  0.56737020  0.36885246  0.27610190     0.97280
O1047       O  0.53899733  0.36167874  0.27035760    -0.83290
O1048       O  0.51335012  0.41872052  0.27784859    -0.85900
C1049       C  0.50584354  0.44355323  0.29180761     1.01750
O1050       O  0.49785804  0.44428876  0.32041692    -0.78720
O1051       O  0.54793071  0.43404697  0.35607397    -0.78870
C1052       C  0.57252513  0.42077366  0.36515914     1.01710
Cr1053     Cr  0.55011448  0.35870885  0.34060461     1.93740
Cr1054     Cr  0.50013290  0.37803902  0.29250390     1.93210
Cr1055     Cr  0.50690352  0.41371904  0.35494444     1.39100
O1056       O  0.51962778  0.38414203  0.32890787    -1.23960
C1057       C  0.60572266  0.38556216  0.19575482    -0.10010
C1058       C  0.63756593  0.38198695  0.20309828     0.06180
C1059       C  0.64554942  0.37117971  0.23364514    -0.03780
C1060       C  0.62236270  0.36647276  0.25641745    -0.08230
C1061       C  0.59059656  0.37159196  0.24977294     0.05300
C1062       C  0.58233483  0.38046500  0.21859487    -0.03260
Br1063     Br  0.53997147  0.38879547  0.20600502    -0.02950
H1064       H  0.59903369  0.39403359  0.17267412     0.09210
H1065       H  0.62938348  0.35897355  0.27973697     0.07230
Br1066     Br  0.68790724  0.36212382  0.24613601    -0.03380
C1067       C  0.48295970  0.50338306  0.23299424    -0.10010
C1068       C  0.50831460  0.52391810  0.23573952     0.06180
C1069       C  0.53319766  0.51740750  0.25642961    -0.03780
C1070       C  0.53113638  0.49158756  0.27597730    -0.08230
C1071       C  0.50540396  0.47172122  0.27381672     0.05300
C1072       C  0.48151645  0.47700200  0.25183452    -0.03260
Br1073     Br  0.44625616  0.44958608  0.24728370    -0.02950
H1074       H  0.46373317  0.50846456  0.21711416     0.09210
H1075       H  0.54980198  0.48669834  0.29245788     0.07230
Br1076     Br  0.57093740  0.54180126  0.25793098    -0.03380
C1077       C  0.61641656  0.56237861  0.13051045    -0.10010
C1078       C  0.58542143  0.55263778  0.13560081     0.06180
C1079       C  0.57938049  0.51961659  0.13566793    -0.03780
C1080       C  0.60372059  0.49800381  0.13124042    -0.08230
C1081       C  0.63474924  0.50759957  0.12690907     0.05300
C1082       C  0.64090079  0.54049010  0.12629905    -0.03260
Br1083     Br  0.68209976  0.55784512  0.12155415    -0.02950
H1084       H  0.62191657  0.58725044  0.13071941     0.09210
H1085       H  0.59820139  0.47313878  0.13184903     0.07230
Br1086     Br  0.53908672  0.50066442  0.14304936    -0.03380
C1087       C  0.70011332  0.50474992  0.27919204    -0.10010
C1088       C  0.72204930  0.52914456  0.28192032     0.06180
C1089       C  0.74040327  0.53793934  0.25585968    -0.03780
C1090       C  0.73882079  0.51987916  0.22884546    -0.08230
C1091       C  0.71883082  0.49404610  0.22763556     0.05300
C1092       C  0.69829721  0.48723535  0.25201884    -0.03260
Br1093     Br  0.66741845  0.45480874  0.24894382    -0.02950
H1094       H  0.68491214  0.49864856  0.29852735     0.09210
H1095       H  0.75379136  0.52540874  0.20902652     0.07230
Br1096     Br  0.76880581  0.57277215  0.25523536    -0.03380
C1097       C  0.64295190  0.60997279  0.28138799    -0.10010
C1098       C  0.63537806  0.61558277  0.31331657     0.06180
C1099       C  0.60455315  0.62550734  0.32009886    -0.03780
C1100       C  0.58266230  0.62949705  0.29541326    -0.08230
C1101       C  0.59050426  0.62364201  0.26352304     0.05300
C1102       C  0.62139145  0.61371553  0.25695539    -0.03260
Br1103     Br  0.63664581  0.60372222  0.21549823    -0.02950
H1104       H  0.66614225  0.60195934  0.27490174     0.09210
H1105       H  0.55916386  0.63697432  0.30137654     0.07230
Br1106     Br  0.59079200  0.63399222  0.36220004    -0.03380
C1107       C  0.60916273  0.44939846  0.40182418    -0.10010
C1108       C  0.60009856  0.44126094  0.37104519     0.06180
C1109       C  0.61318755  0.45807665  0.34571524    -0.03780
C1110       C  0.63372474  0.48318150  0.35118929    -0.08230
C1111       C  0.64256973  0.49166598  0.38180236     0.05300
C1112       C  0.63050561  0.47416632  0.40727566    -0.03260
Br1113     Br  0.64092452  0.48483827  0.44985078    -0.02950
H1114       H  0.59869916  0.43740149  0.42165107     0.09210
H1115       H  0.64262519  0.49632831  0.33138993     0.07230
Br1116     Br  0.60327476  0.44749926  0.30299610    -0.03380
C1117       C  0.74400417  0.13728552  0.88242713    -0.10010
C1118       C  0.73593544  0.10664320  0.87339995     0.06180
C1119       C  0.70344037  0.09960261  0.87065560    -0.03780
C1120       C  0.68052470  0.12270448  0.87754380    -0.08230
C1121       C  0.68882423  0.15322732  0.88725624     0.05300
C1122       C  0.72141801  0.16007578  0.88973288    -0.03260
Br1123     Br  0.73836465  0.19900653  0.90550849    -0.02950
H1124       H  0.76843659  0.14351846  0.88498127     0.09210
H1125       H  0.65601097  0.11659385  0.87556461     0.07230
Br1126     Br  0.68803797  0.05902371  0.85817204    -0.03380
C1127       C  0.75692545  0.04664292  0.03435246    -0.10010
C1128       C  0.72465246  0.04107767  0.03384735     0.06180
C1129       C  0.70801740  0.04235719  0.00527452    -0.03780
C1130       C  0.72460993  0.04392068  0.97745402    -0.08230
C1131       C  0.75733775  0.04387620  0.97803303     0.05300
C1132       C  0.77352468  0.04791983  0.00661853    -0.03260
Br1133     Br  0.81812064  0.05292221  0.01013804    -0.02950
H1134       H  0.76982989  0.04740898  0.05630484     0.09210
H1135       H  0.71190899  0.04235669  0.95542191     0.07230
Br1136     Br  0.66327927  0.04036799  0.00198269    -0.03380
C1137       C  0.60270096  0.12141937  0.01628532    -0.10010
C1138       C  0.61514722  0.15161420  0.02064603     0.06180
C1139       C  0.62832445  0.15907886  0.05042772    -0.03780
C1140       C  0.63112066  0.13582979  0.07386547    -0.08230
C1141       C  0.62017652  0.10514996  0.06874162     0.05300
C1142       C  0.60441046  0.09865695  0.04013415    -0.03260
Br1143     Br  0.58407468  0.05905145  0.03269779    -0.02950
H1144       H  0.59131470  0.11553460  0.99426862     0.09210
H1145       H  0.64349734  0.14130633  0.09544556     0.07230
Br1146     Br  0.64533882  0.19979006  0.05988873    -0.03380
C1147       C  0.79917002  0.33637303  0.07637616    -0.10010
C1148       C  0.81000149  0.31326109  0.09733774     0.06180
C1149       C  0.79171111  0.30739327  0.12468319    -0.03780
C1150       C  0.76448336  0.32466913  0.13058088    -0.08230
C1151       C  0.75368013  0.34789921  0.10989933     0.05300
C1152       C  0.77135356  0.35336469  0.08216058    -0.03260
Br1153     Br  0.75970784  0.38372141  0.05114176    -0.02950
H1154       H  0.81230665  0.34110989  0.05513751     0.09210
H1155       H  0.75152867  0.31977708  0.15191951     0.07230
Br1156     Br  0.80016173  0.27496792  0.15497192    -0.03380
C1157       C  0.75130917  0.20796379  0.02879739    -0.10010
C1158       C  0.76858156  0.23578774  0.02881201     0.06180
C1159       C  0.76180436  0.26009702  0.00759708    -0.03780
C1160       C  0.73663929  0.25691875  0.98748266    -0.08230
C1161       C  0.71867950  0.22951378  0.98809576     0.05300
C1162       C  0.72655784  0.20439969  0.00803122    -0.03260
Br1163     Br  0.70563105  0.16448584  0.00615339    -0.02950
H1164       H  0.75772390  0.18875537  0.04418364     0.09210
H1165       H  0.73043392  0.27632774  0.97217340     0.07230
Br1166     Br  0.78615699  0.29781763  0.00493763    -0.03380
C1167       C  0.75747690  0.10899264  0.10425104    -0.10010
C1168       C  0.74919200  0.10307225  0.13555404     0.06180
C1169       C  0.76879287  0.11448256  0.15976371    -0.03780
C1170       C  0.79487085  0.13335403  0.15241903    -0.08230
C1171       C  0.80272201  0.13981658  0.12097509     0.05300
C1172       C  0.78408365  0.12667642  0.09692883    -0.03260
Br1173     Br  0.79426233  0.13200243  0.05349478    -0.02950
H1174       H  0.74354286  0.09922151  0.08530801     0.09210
H1175       H  0.80835453  0.14386706  0.17128484     0.07230
Br1176     Br  0.76004058  0.10579905  0.20309919    -0.03380
C1177       C  0.83740167  0.15038480  0.98454101    -0.10010
C1178       C  0.86794092  0.15798532  0.99357787     0.06180
C1179       C  0.89316197  0.14567378  0.97598606    -0.03780
C1180       C  0.88753021  0.12395129  0.95149182    -0.08230
C1181       C  0.85685227  0.11473646  0.94395160     0.05300
C1182       C  0.83171774  0.12884278  0.96031114    -0.03260
Br1183     Br  0.78896127  0.11834756  0.95155973    -0.02950
H1184       H  0.81778609  0.16087929  0.99680181     0.09210
H1185       H  0.90712873  0.11313109  0.93944886     0.07230
Br1186     Br  0.93551128  0.15684730  0.98562975    -0.03380
C1187       C  0.23842560  0.73591450  0.47711144    -0.10010
C1188       C  0.21033719  0.72917223  0.49246092     0.06180
C1189       C  0.20987428  0.72543284  0.52562427    -0.03780
C1190       C  0.23775689  0.72623402  0.54212314    -0.08230
C1191       C  0.26565660  0.73197186  0.52638628     0.05300
C1192       C  0.26586933  0.73827149  0.49385886    -0.03260
Br1193     Br  0.30181136  0.75304896  0.47103338    -0.02950
H1194       H  0.23910879  0.74026028  0.45199971     0.09210
H1195       H  0.23765702  0.72249296  0.56735588     0.07230
Br1196     Br  0.17297240  0.72119019  0.55100113    -0.03380
C1197       C  0.27888897  0.59405334  0.62495807    -0.10010
C1198       C  0.24954632  0.60347084  0.63716609     0.06180
C1199       C  0.24638560  0.63503449  0.64707026    -0.03780
C1200       C  0.27123375  0.65636806  0.64335923    -0.08230
C1201       C  0.30007057  0.64758616  0.62957484     0.05300
C1202       C  0.30378038  0.61561358  0.62087050    -0.03260
Br1203     Br  0.34108244  0.60038830  0.60086119    -0.02950
H1204       H  0.28213991  0.56993021  0.61731740     0.09210
H1205       H  0.26751345  0.68053672  0.65063178     0.07230
Br1206     Br  0.20899321  0.65050217  0.66676904    -0.03380
C1207       C  0.10844402  0.59509463  0.53504047    -0.10010
C1208       C  0.11917599  0.60571465  0.56459851     0.06180
C1209       C  0.12100496  0.63846538  0.56964470    -0.03780
C1210       C  0.11404455  0.65941247  0.54485382    -0.08230
C1211       C  0.10612335  0.64849818  0.51444897     0.05300
C1212       C  0.10217341  0.61580128  0.51023744    -0.03260
Br1213     Br  0.08779972  0.59744426  0.47150227    -0.02950
H1214       H  0.10575462  0.57010387  0.53074338     0.09210
H1215       H  0.11618767  0.68440806  0.54906452     0.07230
Br1216     Br  0.13543055  0.65585649  0.60869703    -0.03380
C1217       C  0.38529017  0.47018466  0.33052120    -0.10010
C1218       C  0.39706291  0.49140736  0.35331311     0.06180
C1219       C  0.42597778  0.48437907  0.36752644    -0.03780
C1220       C  0.44148193  0.45629065  0.36043300    -0.08230
C1221       C  0.42945364  0.43432601  0.33863233     0.05300
C1222       C  0.40125551  0.44189368  0.32308440    -0.03260
Br1223     Br  0.38215246  0.41301655  0.29426647    -0.02950
H1224       H  0.36268508  0.47464976  0.31983983     0.09210
H1225       H  0.46342598  0.45164649  0.37234382     0.07230
Br1226     Br  0.44565773  0.51226120  0.39711328    -0.03380
C1227       C  0.22590266  0.51761079  0.47949924    -0.10010
C1228       C  0.25753245  0.50846469  0.48076498     0.06180
C1229       C  0.27136296  0.50064987  0.50992962    -0.03780
C1230       C  0.25356886  0.50311742  0.53696561    -0.08230
C1231       C  0.22236485  0.51296280  0.53546993     0.05300
C1232       C  0.20823608  0.51988220  0.50654757    -0.03260
Br1233     Br  0.16581308  0.53440803  0.50230899    -0.02950
H1234       H  0.21472486  0.52360510  0.45740910     0.09210
H1235       H  0.26416758  0.49717692  0.55938274     0.07230
Br1236     Br  0.31391628  0.48691927  0.51573052    -0.03380
C1237       C  0.35956770  0.63175312  0.44484728    -0.10010
C1238       C  0.35901308  0.60015535  0.45437860     0.06180
C1239       C  0.36609160  0.59325368  0.48626852    -0.03780
C1240       C  0.37013721  0.61755333  0.50808044    -0.08230
C1241       C  0.36864593  0.64925094  0.49911099     0.05300
C1242       C  0.36475965  0.65616985  0.46662631    -0.03260
Br1243     Br  0.36525205  0.69808886  0.44991465    -0.02950
H1244       H  0.35496328  0.63764075  0.42048477     0.09210
H1245       H  0.37456051  0.61145306  0.53242143     0.07230
Br1246     Br  0.37196196  0.55128564  0.50211320    -0.03380
C1247       C  0.19069507  0.63067586  0.36281270    -0.10010
C1248       C  0.17846354  0.63559799  0.39314040     0.06180
C1249       C  0.19248554  0.61951229  0.41862314    -0.03780
C1250       C  0.21815587  0.59939551  0.41368285    -0.08230
C1251       C  0.23083925  0.59511487  0.38355103     0.05300
C1252       C  0.21648537  0.61048829  0.35789176    -0.03260
Br1253     Br  0.23256624  0.60592742  0.31605466    -0.02950
H1254       H  0.18118884  0.64375874  0.34313197     0.09210
H1255       H  0.22860666  0.58741687  0.43360124     0.07230
Br1256     Br  0.17858627  0.62580509  0.46108865    -0.03380
C1257       C  0.82628335  0.89115048  0.96913857    -0.10010
C1258       C  0.82948002  0.90454625  0.99939666     0.06180
C1259       C  0.81692206  0.93470003  0.00435128    -0.03780
C1260       C  0.80477895  0.95200121  0.97883357    -0.08230
C1261       C  0.80557847  0.94024995  0.94767897     0.05300
C1262       C  0.81530205  0.90891489  0.94337399    -0.03260
Br1263     Br  0.81451557  0.88985242  0.90254093    -0.02950
H1264       H  0.83345147  0.86709289  0.96507392     0.09210
H1265       H  0.79631646  0.97542150  0.98351157     0.07230
Br1266     Br  0.81687996  0.95353134  0.04534233    -0.03380
C1267       C  0.87201306  0.72816167  0.16651569    -0.10010
C1268       C  0.87520977  0.69642205  0.15730184     0.06180
C1269       C  0.87072795  0.68909460  0.12518658    -0.03780
C1270       C  0.86519131  0.71344505  0.10322410    -0.08230
C1271       C  0.86396472  0.74545212  0.11244068     0.05300
C1272       C  0.86665782  0.75232870  0.14490871    -0.03260
Br1273     Br  0.86355951  0.79401280  0.16241898    -0.02950
H1274       H  0.87446194  0.73463413  0.19106695     0.09210
H1275       H  0.86281432  0.70728783  0.07860282     0.07230
Br1276     Br  0.87345573  0.64683005  0.10959093    -0.03380
C1277       C  0.84381509  0.57501874  0.29011229    -0.10010
C1278       C  0.84079348  0.60558542  0.27732083     0.06180
C1279       C  0.82237770  0.62763070  0.29430765    -0.03780
C1280       C  0.80715197  0.61878784  0.32200126    -0.08230
C1281       C  0.80842898  0.58788558  0.33383518     0.05300
C1282       C  0.82783175  0.56607465  0.31785798    -0.03260
Br1283     Br  0.83411797  0.52419351  0.33328181    -0.02950
H1284       H  0.85873415  0.55791634  0.27855131     0.09210
H1285       H  0.79253586  0.63624940  0.33337086     0.07230
Br1286     Br  0.81483324  0.67026870  0.28101432    -0.03380
C1287       C  0.99116226  0.78155181  0.01790906    -0.10010
C1288       C  0.96287192  0.76618598  0.02342235     0.06180
C1289       C  0.96226764  0.73286468  0.02623950    -0.03780
C1290       C  0.99006572  0.71610569  0.02479086    -0.08230
C1291       C  0.01831353  0.73172802  0.02046753     0.05300
C1292       C  0.01881257  0.76472614  0.01618031    -0.03260
Br1293     Br  0.05582906  0.78871901  0.00678591    -0.02950
H1294       H  0.99191039  0.80687212  0.01498507     0.09210
H1295       H  0.98967114  0.69077137  0.02777261     0.07230
Br1296     Br  0.92518186  0.70768748  0.03142604    -0.03380
C1297       C  0.01806865  0.62241067  0.10260024    -0.10010
C1298       C  0.04856065  0.63027733  0.11299531     0.06180
C1299       C  0.05414874  0.63040118  0.14570713    -0.03780
C1300       C  0.02935167  0.62444266  0.16677035    -0.08230
C1301       C  0.99847822  0.61857223  0.15615471     0.05300
C1302       C  0.99337469  0.61687864  0.12347813    -0.03260
Br1303     Br  0.95352990  0.60654632  0.10537965    -0.02950
H1304       H  0.01292185  0.62122624  0.07766158     0.09210
H1305       H  0.03412439  0.62554145  0.19177349     0.07230
Br1306     Br  0.09432907  0.64024291  0.16320302    -0.03380
C1307       C  0.11098740  0.78220937  0.34318623    -0.10010
C1308       C  0.08813235  0.76021925  0.35193377     0.06180
C1309       C  0.05636169  0.76909142  0.34733559    -0.03780
C1310       C  0.04875246  0.79820082  0.33282039    -0.08230
C1311       C  0.07210688  0.81999122  0.32400993     0.05300
C1312       C  0.10353379  0.81185215  0.33100427    -0.03260
Br1313     Br  0.13832085  0.83996738  0.32535487    -0.02950
H1314       H  0.13532683  0.77686655  0.34678911     0.09210
H1315       H  0.02446030  0.80334845  0.32762022     0.07230
Br1316     Br  0.02224788  0.74231130  0.35913837    -0.03380
C1317       C  0.02920031  0.75099788  0.23528610    -0.10010
C1318       C  0.01088113  0.77835454  0.23615736     0.06180
C1319       C  0.97804056  0.77674376  0.23314370    -0.03780
C1320       C  0.96427349  0.74769240  0.23091007    -0.08230
C1321       C  0.98235037  0.72036535  0.23301659     0.05300
C1322       C  0.01519202  0.72181808  0.23398540    -0.03260
Br1323     Br  0.04231143  0.68572194  0.23661078    -0.02950
H1324       H  0.05449333  0.75220661  0.23672526     0.09210
H1325       H  0.93896414  0.74644911  0.22940319     0.07230
Br1326     Br  0.94957165  0.81200012  0.23485421    -0.03380
C1327       C  0.95390059  0.84255715  0.12344991    -0.10010
C1328       C  0.93287074  0.86682269  0.11567074     0.06180
C1329       C  0.93610610  0.89617983  0.13079685    -0.03780
C1330       C  0.96022223  0.90078386  0.15307667    -0.08230
C1331       C  0.98192736  0.87669712  0.15989133     0.05300
C1332       C  0.97815227  0.84722286  0.14512742    -0.03260
Br1333     Br  0.00522536  0.81221702  0.15404457    -0.02950
H1334       H  0.95189497  0.81987084  0.11191258     0.09210
H1335       H  0.96273997  0.92358005  0.16417875     0.07230
Br1336     Br  0.91014024  0.93121985  0.11950429    -0.03380
C1337       C  0.12313624  0.78152237  0.16090044    -0.10010
C1338       C  0.10977338  0.81051554  0.15203978     0.06180
C1339       C  0.10286192  0.81542781  0.11994441    -0.03780
C1340       C  0.10782287  0.79099391  0.09798595    -0.08230
C1341       C  0.11926009  0.76128578  0.10743815     0.05300
C1342       C  0.12783138  0.75717766  0.13923647    -0.03260
Br1343     Br  0.14651516  0.71910304  0.15487021    -0.02950
H1344       H  0.12912553  0.77730036  0.18532339     0.09210
H1345       H  0.10125843  0.79476550  0.07365657     0.07230
Br1346     Br  0.08389026  0.85363114  0.10529272    -0.03380
C1347       C  0.95668153  0.52017920  0.27883888    -0.10010
C1348       C  0.95059898  0.53056466  0.24823309     0.06180
C1349       C  0.95017580  0.50817047  0.22330046    -0.03780
C1350       C  0.95097264  0.47612343  0.23013916    -0.08230
C1351       C  0.95345098  0.46585008  0.26119137     0.05300
C1352       C  0.95881838  0.48815751  0.28540681    -0.03260
Br1353     Br  0.96966093  0.47678887  0.32787651    -0.02950
H1354       H  0.95897288  0.53692392  0.29795158     0.09210
H1355       H  0.94831284  0.45922497  0.21119985     0.07230
Br1356     Br  0.94901272  0.51875798  0.17926355    -0.03380
C1357       C  0.84451496  0.39547593  0.20785611    -0.10010
C1358       C  0.84208072  0.40942288  0.23783626     0.06180
C1359       C  0.82443052  0.43739844  0.24061196    -0.03780
C1360       C  0.80808514  0.44937398  0.21426863    -0.08230
C1361       C  0.80927826  0.43401541  0.18478795     0.05300
C1362       C  0.82920255  0.40785693  0.18159941    -0.03260
Br1363     Br  0.83483862  0.38696859  0.14188202    -0.02950
H1364       H  0.85786023  0.37419126  0.20459741     0.09210
H1365       H  0.79231553  0.46909094  0.21758617     0.07230
Br1366     Br  0.81832686  0.45738077  0.28051542    -0.03380
C1367       C  0.89537838  0.29142649  0.20615927    -0.10010
C1368       C  0.92072456  0.30957328  0.19515043     0.06180
C1369       C  0.93779808  0.29788615  0.16926038    -0.03780
C1370       C  0.92791368  0.27006019  0.15377173    -0.08230
C1371       C  0.90159312  0.25276700  0.16425768     0.05300
C1372       C  0.88640004  0.26321908  0.19177376    -0.03260
Br1373     Br  0.85388269  0.23947781  0.21190617    -0.02950
H1374       H  0.88242302  0.29898233  0.22672278     0.09210
H1375       H  0.94008753  0.26273002  0.13263456     0.07230
Br1376     Br  0.97311197  0.32018778  0.15296103    -0.03380
C1377       C  0.87425307  0.31684375  0.38842395    -0.10010
C1378       C  0.86618599  0.31080966  0.35699841     0.06180
C1379       C  0.85208597  0.28155311  0.34962505    -0.03780
C1380       C  0.84975250  0.25798382  0.37245730    -0.08230
C1381       C  0.85982363  0.26312070  0.40342647     0.05300
C1382       C  0.87078894  0.29355754  0.41165448    -0.03260
Br1383     Br  0.88378578  0.30443823  0.45346576    -0.02950
H1384       H  0.88500716  0.33906854  0.39464848     0.09210
H1385       H  0.84001886  0.23538283  0.36587832     0.07230
Br1386     Br  0.83508581  0.27233727  0.30872851    -0.03380
C1387       C  0.16971225  0.39936830  0.53690147    -0.10010
C1388       C  0.14378891  0.40921091  0.51855627     0.06180
C1389       C  0.12663399  0.43552858  0.52919817    -0.03780
C1390       C  0.13371355  0.44961537  0.55811478    -0.08230
C1391       C  0.15905652  0.43960611  0.57700133     0.05300
C1392       C  0.17768839  0.41465613  0.56549827    -0.03260
Br1393     Br  0.21304516  0.39974731  0.58879944    -0.02950
H1394       H  0.18325918  0.37907269  0.52955076     0.09210
H1395       H  0.11972932  0.46969797  0.56521140     0.07230
Br1396     Br  0.09432750  0.45499666  0.50444062    -0.03380
C1397       C  0.02099930  0.23667293  0.47897516    -0.10010
C1398       C  0.01935625  0.26954699  0.48232560     0.06180
C1399       C  0.99030558  0.28505878  0.48135330    -0.03780
C1400       C  0.96346017  0.26721351  0.48048056    -0.08230
C1401       C  0.96502904  0.23426059  0.47961930     0.05300
C1402       C  0.99405017  0.21887720  0.47734309    -0.03260
Br1403     Br  0.99888630  0.17419493  0.47158626    -0.02950
H1404       H  0.04330601  0.22450486  0.47847745     0.09210
H1405       H  0.94121721  0.27933439  0.48156034     0.07230
Br1406     Br  0.98492645  0.33005776  0.48077418    -0.03380
C1407       C  0.02291879  0.34312370  0.39773808    -0.10010
C1408       C  0.04900801  0.36331984  0.39966388     0.06180
C1409       C  0.05020241  0.38917319  0.37895343    -0.03780
C1410       C  0.02523874  0.39475173  0.35775208    -0.08230
C1411       C  0.99847671  0.37523191  0.35708009     0.05300
C1412       C  0.99804433  0.34874174  0.37699112    -0.03260
Br1413     Br  0.96497950  0.31818051  0.37587410    -0.02950
H1414       H  0.02159769  0.32277543  0.41303006     0.09210
H1415       H  0.02643358  0.41487408  0.34219089     0.07230
Br1416     Br  0.08413051  0.41853651  0.38024249    -0.03380
C1417       C  0.05756689  0.98004186  0.27655568    -0.10010
C1418       C  0.03817259  0.96971793  0.25237735     0.06180
C1419       C  0.02242036  0.99182641  0.23333765    -0.03780
C1420       C  0.02704343  0.02401155  0.23840288    -0.08230
C1421       C  0.04779891  0.03429044  0.26181050     0.05300
C1422       C  0.06364280  0.01181209  0.28054689    -0.03260
Br1423     Br  0.09590571  0.02224078  0.31036804    -0.02950
H1424       H  0.06941188  0.96325151  0.29140114     0.09210
H1425       H  0.01404901  0.04091877  0.22447701     0.07230
Br1426     Br  0.99318484  0.97913911  0.20147534    -0.03380
C1427       C  0.97681543  0.21996502  0.28458411    -0.10010
C1428       C  0.00944242  0.22242440  0.28745577     0.06180
C1429       C  0.02333087  0.25109745  0.29570411    -0.03780
C1430       C  0.00482495  0.27764889  0.29662781    -0.08230
C1431       C  0.97283358  0.27589223  0.28907996     0.05300
C1432       C  0.95826733  0.24651896  0.28559548    -0.03260
Br1433     Br  0.91389133  0.24057339  0.28142666    -0.02950
H1434       H  0.96570347  0.19752767  0.27992603     0.09210
H1435       H  0.01612200  0.29998079  0.30129102     0.07230
Br1436     Br  0.06698287  0.25605998  0.30543507    -0.03380
C1437       C  0.95769390  0.13633031  0.34316104    -0.10010
C1438       C  0.98469949  0.12024877  0.35366052     0.06180
C1439       C  0.98501475  0.10847760  0.38458936    -0.03780
C1440       C  0.95966841  0.11427843  0.40470151    -0.08230
C1441       C  0.93344916  0.13201381  0.39497822     0.05300
C1442       C  0.93237935  0.14254147  0.36354986    -0.03260
Br1443     Br  0.89879386  0.16843828  0.34841357    -0.02950
H1444       H  0.95696633  0.14560916  0.31944352     0.09210
H1445       H  0.96103109  0.10585151  0.42872203     0.07230
Br1446     Br  0.01925350  0.08393554  0.40055892    -0.03380
C1447       C  0.10830492  0.21485863  0.42017503    -0.10010
C1448       C  0.12394378  0.24257244  0.41098847     0.06180
C1449       C  0.13617846  0.24417905  0.38028784    -0.03780
C1450       C  0.13123641  0.21936903  0.35911824    -0.08230
C1451       C  0.11392737  0.19249248  0.36755074     0.05300
C1452       C  0.10295370  0.19011160  0.39871674    -0.03260
Br1453     Br  0.07755155  0.15550222  0.41205998    -0.02950
H1454       H  0.09867890  0.21314932  0.44368259     0.09210
H1455       H  0.13991631  0.22170637  0.33528139     0.07230
Br1456     Br  0.16003884  0.27954776  0.36593890    -0.03380
C1457       C  0.47070356  0.72774374  0.22467124    -0.10010
C1458       C  0.49833936  0.71682079  0.21055064     0.06180
C1459       C  0.51998747  0.73905062  0.19827535    -0.03780
C1460       C  0.51296679  0.77091043  0.19929078    -0.08230
C1461       C  0.48500416  0.78152218  0.21233296     0.05300
C1462       C  0.46402134  0.75989880  0.22589301    -0.03260
Br1463     Br  0.42692375  0.77302869  0.24783882    -0.02950
H1464       H  0.45432188  0.71131374  0.23497811     0.09210
H1465       H  0.52914204  0.78753905  0.18889535     0.07230
Br1466     Br  0.55950672  0.72900812  0.17881833    -0.03380
C1467       C  0.57336575  0.94709655  0.20262000    -0.10010
C1468       C  0.56596239  0.92315078  0.18089791     0.06180
C1469       C  0.57731365  0.92647722  0.14991829    -0.03780
C1470       C  0.59139860  0.95450794  0.14030614    -0.08230
C1471       C  0.59647886  0.97972859  0.16123406     0.05300
C1472       C  0.58878929  0.97494804  0.19329403    -0.03260
Br1473     Br  0.59712696  0.00577970  0.22524518    -0.02950
H1474       H  0.56571161  0.94495043  0.22662155     0.09210
H1475       H  0.59867236  0.95630194  0.11598144     0.07230
Br1476     Br  0.57425916  0.89349656  0.11924574    -0.03380
C1477       C  0.22462131  0.81744125  0.39292128    -0.10010
C1478       C  0.23433270  0.84174288  0.41279313     0.06180
C1479       C  0.21680611  0.84684311  0.44074345    -0.03780
C1480       C  0.18895294  0.82975070  0.44652361    -0.08230
C1481       C  0.17822970  0.80670374  0.42528584     0.05300
C1482       C  0.19793061  0.79963546  0.39909395    -0.03260
Br1483     Br  0.19336913  0.76405845  0.37159042    -0.02950
H1484       H  0.23814915  0.81199147  0.37204738     0.09210
H1485       H  0.17567031  0.83453365  0.46769896     0.07230
Br1486     Br  0.22953738  0.87642605  0.47205867    -0.03380
C1487       C  0.19451747  0.90252838  0.29665685    -0.10010
C1488       C  0.18147785  0.92027927  0.32149707     0.06180
C1489       C  0.15091699  0.93199561  0.31792340    -0.03780
C1490       C  0.13393068  0.92523679  0.29023006    -0.08230
C1491       C  0.14705438  0.90733794  0.26554060     0.05300
C1492       C  0.17796350  0.89656514  0.26887964    -0.03260
Br1493     Br  0.19867751  0.87350793  0.23607510    -0.02950
H1494       H  0.21788402  0.89289984  0.29881429     0.09210
H1495       H  0.10971012  0.93204778  0.28883257     0.07230
Br1496     Br  0.13052534  0.95373720  0.35169525    -0.03380
C1497       C  0.40523979  0.87751011  0.30141952    -0.10010
C1498       C  0.39568084  0.86970844  0.27048857     0.06180
C1499       C  0.36363408  0.86377091  0.26530837    -0.03780
C1500       C  0.34205342  0.86792161  0.28968772    -0.08230
C1501       C  0.35099794  0.87851779  0.31985998     0.05300
C1502       C  0.38329346  0.88192103  0.32597687    -0.03260
Br1503     Br  0.39856163  0.89429663  0.36656595    -0.02950
H1504       H  0.42979270  0.88153762  0.30626119     0.09210
H1505       H  0.31755379  0.86391901  0.28448701     0.07230
Br1506     Br  0.34733026  0.84963043  0.22557297    -0.03380
C1507       C  0.51618628  0.22542582  0.30395881    -0.10010
C1508       C  0.48493908  0.21650566  0.30056263     0.06180
C1509       C  0.46211371  0.23983831  0.29419124    -0.03780
C1510       C  0.47019332  0.27154739  0.29581442    -0.08230
C1511       C  0.50097616  0.28067894  0.30246782     0.05300
C1512       C  0.52455978  0.25708090  0.30447270    -0.03260
Br1513     Br  0.56873796  0.26515080  0.30817195    -0.02950
H1514       H  0.53412877  0.20773655  0.30760028     0.09210
H1515       H  0.45208463  0.28909845  0.29239724     0.07230
Br1516     Br  0.41970417  0.23039799  0.28225263    -0.03380
C1517       C  0.49626387  0.00412180  0.28832065    -0.10010
C1518       C  0.47088006  0.02405282  0.28249064     0.06180
C1519       C  0.44809992  0.01625947  0.25995366    -0.03780
C1520       C  0.45287540  0.99000037  0.24122831    -0.08230
C1521       C  0.47931361  0.97123744  0.24598266     0.05300
C1522       C  0.50015158  0.97720396  0.27070112    -0.03260
Br1523     Br  0.53319071  0.94896991  0.28246037    -0.02950
H1524       H  0.51340831  0.00969761  0.30624852     0.09210
H1525       H  0.43544699  0.98348771  0.22386867     0.07230
Br1526     Br  0.40922360  0.03870313  0.25596295    -0.03380
C1527       C  0.38136208  0.03168630  0.35347883    -0.10010
C1528       C  0.37985993  0.06010469  0.37058856     0.06180
C1529       C  0.35570040  0.06371189  0.39287076    -0.03780
C1530       C  0.33542396  0.03820525  0.39917167    -0.08230
C1531       C  0.33884853  0.00894455  0.38355859     0.05300
C1532       C  0.36151552  0.00651116  0.35963934    -0.03260
Br1533     Br  0.36594688  0.97022103  0.33292450    -0.02950
H1534       H  0.39883495  0.02863645  0.33523730     0.09210
H1535       H  0.31736449  0.04104317  0.41681787     0.07230
Br1536     Br  0.35018825  0.10211170  0.41591304    -0.03380
C1537       C  0.18766236  0.11076504  0.20617658    -0.10010
C1538       C  0.17982061  0.08255884  0.19043758     0.06180
C1539       C  0.15767878  0.06267658  0.20493323    -0.03780
C1540       C  0.14315151  0.07196337  0.23344032    -0.08230
C1541       C  0.15105463  0.10047782  0.24879271     0.05300
C1542       C  0.17449853  0.11925269  0.23502504    -0.03260
Br1543     Br  0.19202158  0.15566773  0.25528682    -0.02950
H1544       H  0.20563019  0.12604451  0.19681804     0.09210
H1545       H  0.12500366  0.05713914  0.24317583     0.07230
Br1546     Br  0.14550472  0.02348136  0.18627568    -0.03380
C1547       C  0.25365214  0.01430047  0.28803493    -0.10010
C1548       C  0.26425000  0.98317089  0.28626843     0.06180
C1549       C  0.27504055  0.97047626  0.25796349    -0.03780
C1550       C  0.27378003  0.98881837  0.23128806    -0.08230
C1551       C  0.26178926  0.01970757  0.23247774     0.05300
C1552       C  0.25243808  0.03285205  0.26145593    -0.03260
Br1553     Br  0.23784312  0.07527471  0.26747780    -0.02950
H1554       H  0.24564513  0.02409132  0.31020040     0.09210
H1555       H  0.28197061  0.97849497  0.20946008     0.07230
Br1556     Br  0.29276477  0.92906854  0.25439616    -0.03380
C1557       C  0.36181579  0.93949863  0.13842837    -0.10010
C1558       C  0.39237980  0.94921267  0.14596055     0.06180
C1559       C  0.39850774  0.98220922  0.14597482    -0.03780
C1560       C  0.37461965  0.00382470  0.13972828    -0.08230
C1561       C  0.34395288  0.99437293  0.13293561     0.05300
C1562       C  0.33780386  0.96147846  0.13187992    -0.03260
Br1563     Br  0.29737035  0.94436619  0.12222497    -0.02950
H1564       H  0.35635131  0.91462163  0.13806085     0.09210
H1565       H  0.38031938  0.02864456  0.14049230     0.07230
Br1566     Br  0.43867224  0.00121451  0.15404342    -0.03380
C1567       C  0.37662459  0.11422869  0.19562490    -0.10010
C1568       C  0.34527690  0.12219822  0.20138057     0.06180
C1569       C  0.33767005  0.13614286  0.23072243    -0.03780
C1570       C  0.36045176  0.13937604  0.25425880    -0.08230
C1571       C  0.39150330  0.12980923  0.24930665     0.05300
C1572       C  0.39969353  0.11810004  0.21903959    -0.03260
Br1573     Br  0.44124221  0.10431418  0.20861367    -0.02950
H1574       H  0.38294449  0.10332107  0.17345422     0.09210
H1575       H  0.35372244  0.14935386  0.27673950     0.07230
Br1576     Br  0.29639367  0.15166705  0.24011947    -0.03380
C1577       C  0.48138111  0.27832129  0.97526255    -0.10010
C1578       C  0.46096731  0.25581676  0.96219023     0.06180
C1579       C  0.47328922  0.22732712  0.95097054    -0.03780
C1580       C  0.50546744  0.22220836  0.95212804    -0.08230
C1581       C  0.52632063  0.24493303  0.96443733     0.05300
C1582       C  0.51373667  0.27311608  0.97671330    -0.03260
Br1583     Br  0.53873113  0.30532199  0.99600111    -0.02950
H1584       H  0.47208458  0.30033201  0.98421248     0.09210
H1585       H  0.51413994  0.20029170  0.94241160     0.07230
Br1586     Br  0.44796625  0.19560893  0.93118242    -0.03380
C1587       C  0.21726686  0.48538630  0.77292891    -0.10010
C1588       C  0.20078284  0.50482887  0.79398764     0.06180
C1589       C  0.18416356  0.53081459  0.78248711    -0.03780
C1590       C  0.18259136  0.53580638  0.75008186    -0.08230
C1591       C  0.19728113  0.51509526  0.72862079     0.05300
C1592       C  0.21589008  0.49038209  0.74048154    -0.03260
Br1593     Br  0.24020332  0.46288742  0.71415891    -0.02950
H1594       H  0.23031480  0.46535749  0.78177539     0.09210
H1595       H  0.16847922  0.55525291  0.74164394     0.07230
Br1596     Br  0.16041753  0.55793707  0.80965716    -0.03380
C1597       C  0.30430031  0.37709877  0.86504920    -0.10010
C1598       C  0.30289671  0.35953767  0.89302653     0.06180
C1599       C  0.27666304  0.36394695  0.91292734    -0.03780
C1600       C  0.25176016  0.38334846  0.90383164    -0.08230
C1601       C  0.25245218  0.40007247  0.87549382     0.05300
C1602       C  0.27960501  0.39764647  0.85648851    -0.03260
Br1603     Br  0.28322959  0.42043384  0.81778170    -0.02950
H1604       H  0.32396100  0.37398457  0.84928085     0.09210
H1605       H  0.23199830  0.38609783  0.91958006     0.07230
Br1606     Br  0.27393161  0.34486975  0.95377793    -0.03380
C1607       C  0.13959088  0.56459568  0.00088346    -0.10010
C1608       C  0.15519215  0.59242581  0.00804226     0.06180
C1609       C  0.18317921  0.59901149  0.99115427    -0.03780
C1610       C  0.19229869  0.58003148  0.96529019    -0.08230
C1611       C  0.17463950  0.55365710  0.95641046     0.05300
C1612       C  0.14927006  0.54504748  0.97638528    -0.03260
Br1613     Br  0.12626518  0.50653972  0.97394159    -0.02950
H1614       H  0.11903427  0.55810666  0.01428884     0.09210
H1615       H  0.21263887  0.58648733  0.95157304     0.07230
Br1616     Br  0.20985266  0.63347716  0.00141423    -0.03380
C1617       C  0.29461870  0.52578410  0.23314673    -0.10010
C1618       C  0.28483109  0.49601834  0.22337537     0.06180
C1619       C  0.27426789  0.47413542  0.24594155    -0.03780
C1620       C  0.27628049  0.48137268  0.27785772    -0.08230
C1621       C  0.28801542  0.51046936  0.28796884     0.05300
C1622       C  0.29615117  0.53337667  0.26502675    -0.03260
Br1623     Br  0.31071555  0.57521280  0.27432970    -0.02950
H1624       H  0.30246857  0.54281859  0.21593418     0.09210
H1625       H  0.26873039  0.46398024  0.29482318     0.07230
Br1626     Br  0.25594041  0.43433109  0.23482678    -0.03380
C1627       C  0.43254010  0.55144772  0.15431625    -0.10010
C1628       C  0.42482588  0.56603406  0.18311047     0.06180
C1629       C  0.40335233  0.55057463  0.20291909    -0.03780
C1630       C  0.38868783  0.52251095  0.19270649    -0.08230
C1631       C  0.39601680  0.50859923  0.16330611     0.05300
C1632       C  0.41938433  0.52299937  0.14484856    -0.03260
Br1633     Br  0.43571593  0.50511532  0.10657656    -0.02950
H1634       H  0.45002232  0.56171142  0.13905632     0.09210
H1635       H  0.37079158  0.51213743  0.20741245     0.07230
Br1636     Br  0.39237064  0.56751007  0.24319391    -0.03380
C1637       C  0.23218228  0.45419672  0.03392555    -0.10010
C1638       C  0.26352108  0.46424647  0.03297938     0.06180
C1639       C  0.28002614  0.46370960  0.00433290    -0.03780
C1640       C  0.26339040  0.45907462  0.97682231    -0.08230
C1641       C  0.23084598  0.45508897  0.97782166     0.05300
C1642       C  0.21577855  0.44928573  0.00640496    -0.03260
Br1643     Br  0.17291109  0.43611798  0.00928247    -0.02950
H1644       H  0.21971996  0.45179269  0.05597605     0.09210
H1645       H  0.27553502  0.46169829  0.95460975     0.07230
Br1646     Br  0.32433968  0.47054724  0.00031047    -0.03380
C1647       C  0.37674857  0.40175023  0.03880365    -0.10010
C1648       C  0.36228316  0.39261232  0.06713233     0.06180
C1649       C  0.35504225  0.36049176  0.07121559    -0.03780
C1650       C  0.36045098  0.33893503  0.04647471    -0.08230
C1651       C  0.37289748  0.34875222  0.01732018     0.05300
C1652       C  0.38200815  0.38045695  0.01420765    -0.03260
Br1653     Br  0.40219189  0.39635606  0.97716191    -0.02950
H1654       H  0.38308528  0.42616917  0.03523844     0.09210
H1655       H  0.35352434  0.31462790  0.04956202     0.07230
Br1656     Br  0.33537557  0.34527270  0.10874461    -0.03380
C1657       C  0.00209061  0.28230372  0.05111383    -0.10010
C1658       C  0.02374902  0.25750617  0.04727243     0.06180
C1659       C  0.01238432  0.22672795  0.04260022    -0.03780
C1660       C  0.98031895  0.22118628  0.04463212    -0.08230
C1661       C  0.95898286  0.24566940  0.05112433     0.05300
C1662       C  0.97011050  0.27676269  0.05321430    -0.03260
Br1663     Br  0.94393325  0.31280145  0.06112105    -0.02950
H1664       H  0.01002262  0.30632651  0.05399633     0.09210
H1665       H  0.97215868  0.19722182  0.04187223     0.07230
Br1666     Br  0.03865833  0.19082652  0.03457100    -0.03380
C1667       C  0.18523122  0.16665582  0.07073620    -0.10010
C1668       C  0.17194779  0.18738903  0.09290391     0.06180
C1669       C  0.18822956  0.19163629  0.12183530    -0.03780
C1670       C  0.21657458  0.17626603  0.12740138    -0.08230
C1671       C  0.22981224  0.15534268  0.10561119     0.05300
C1672       C  0.21335848  0.15029041  0.07703615    -0.03260
Br1673     Br  0.22669054  0.12043486  0.04619934    -0.02950
H1674       H  0.17366025  0.16308755  0.04832400     0.09210
H1675       H  0.22811723  0.18039564  0.14973625     0.07230
Br1676     Br  0.17508942  0.21876347  0.15557456    -0.03380
C1677       C  0.10365311  0.24055794  0.18720933    -0.10010
C1678       C  0.08454288  0.24850637  0.16168002     0.06180
C1679       C  0.05788326  0.22931328  0.15611319    -0.03780
C1680       C  0.05286811  0.20165746  0.17402287    -0.08230
C1681       C  0.07388338  0.19239310  0.19782193     0.05300
C1682       C  0.09883673  0.21337523  0.20497393    -0.03260
Br1683     Br  0.12728127  0.20857814  0.23962387    -0.02950
H1684       H  0.12346050  0.25534746  0.19302995     0.09210
H1685       H  0.03263850  0.18716304  0.16903983     0.07230
Br1686     Br  0.02728494  0.23917908  0.12481302    -0.03380
C1687       C  0.21467320  0.25553013  0.99310145    -0.10010
C1688       C  0.21598543  0.26238299  0.02531315     0.06180
C1689       C  0.24440688  0.27067642  0.03950318    -0.03780
C1690       C  0.27096704  0.27241524  0.02098015    -0.08230
C1691       C  0.26958500  0.26637167  0.98838557     0.05300
C1692       C  0.24084995  0.25821798  0.97433256    -0.03260
Br1693     Br  0.23420027  0.25197891  0.92999574    -0.02950
H1694       H  0.19279822  0.24867717  0.98219572     0.09210
H1695       H  0.29276620  0.27881117  0.03231646     0.07230
Br1696     Br  0.24844996  0.28161980  0.08322521    -0.03380
C1697       C  0.20527732  0.40091828  0.14839934    -0.10010
C1698       C  0.23213236  0.40219173  0.12914082     0.06180
C1699       C  0.23282249  0.38358225  0.10164067    -0.03780
C1700       C  0.20807266  0.36328546  0.09477955    -0.08230
C1701       C  0.18198976  0.36059299  0.11472679     0.05300
C1702       C  0.18045021  0.38008376  0.14157409    -0.03260
Br1703     Br  0.14643863  0.37719686  0.17076412    -0.02950
H1704       H  0.20405908  0.41540133  0.16936531     0.09210
H1705       H  0.20958390  0.34876905  0.07382553     0.07230
Br1706     Br  0.26628496  0.38553640  0.07156955    -0.03380
C1707       C  0.09837866  0.37454921  0.99112364    -0.10010
C1708       C  0.11334040  0.34521967  0.98941451     0.06180
C1709       C  0.12961211  0.33753419  0.96131254    -0.03780
C1710       C  0.13300991  0.36001189  0.93716841    -0.08230
C1711       C  0.11964385  0.39006459  0.93992278     0.05300
C1712       C  0.10080223  0.39644188  0.96659923    -0.03260
Br1713     Br  0.07815571  0.43525457  0.97102237    -0.02950
H1714       H  0.08480484  0.38060609  0.01179412     0.09210
H1715       H  0.14791178  0.35469066  0.91723931     0.07230
Br1716     Br  0.15023921  0.29793011  0.95549555    -0.03380
C1717       C  0.26217631  0.28647556  0.49068814    -0.10010
C1718       C  0.27286726  0.29964588  0.51897854     0.06180
C1719       C  0.25053563  0.31059501  0.54131543    -0.03780
C1720       C  0.21875913  0.30992970  0.53402737    -0.08230
C1721       C  0.20846360  0.29841428  0.50508949     0.05300
C1722       C  0.23029381  0.28545855  0.48375299    -0.03260
Br1723     Br  0.21797656  0.26494043  0.44534610    -0.02950
H1724       H  0.27863662  0.27690486  0.47380651     0.09210
H1725       H  0.20206597  0.31970356  0.55058700     0.07230
Br1726     Br  0.26064091  0.32804698  0.58190313    -0.03380
C1727       C  0.43936782  0.35757344  0.45094584    -0.10010
C1728       C  0.42345386  0.32956592  0.44300068     0.06180
C1729       C  0.43789833  0.30951972  0.42073300    -0.03780
C1730       C  0.46634251  0.31859471  0.40609987    -0.08230
C1731       C  0.48152588  0.34726929  0.41372545     0.05300
C1732       C  0.46767193  0.36630647  0.43715357    -0.03260
Br1733     Br  0.48613396  0.40450976  0.45281608    -0.02950
H1734       H  0.43040945  0.37278305  0.46925152     0.09210
H1735       H  0.47613326  0.30349529  0.38804048     0.07230
Br1736     Br  0.41938923  0.27025151  0.40877210    -0.03380
C1737       C  0.36196162  0.40834031  0.46941901    -0.10010
C1738       C  0.33995241  0.40176737  0.49305335     0.06180
C1739       C  0.30802642  0.40779896  0.48608854    -0.03780
C1740       C  0.29951296  0.42190338  0.45709457    -0.08230
C1741       C  0.32205947  0.42864284  0.43374928     0.05300
C1742       C  0.35325174  0.41953010  0.43984442    -0.03260
Br1743     Br  0.38553603  0.42092215  0.40856509    -0.02950
H1744       H  0.38648422  0.40367033  0.47339500     0.09210
H1745       H  0.27540246  0.42893648  0.45348750     0.07230
Br1746     Br  0.27532897  0.39970301  0.51585371    -0.03380
C1747       C  0.37680751  0.18863309  0.62515830    -0.10010
C1748       C  0.37686610  0.19768043  0.65697247     0.06180
C1749       C  0.36903077  0.22939833  0.66419501    -0.03780
C1750       C  0.36423694  0.25140448  0.64014586    -0.08230
C1751       C  0.36581459  0.24292406  0.60825442     0.05300
C1752       C  0.37106887  0.21066317  0.60097164    -0.03260
Br1753     Br  0.37237626  0.19491924  0.55869590    -0.02950
H1754       H  0.38241023  0.16453890  0.61893036     0.09210
H1755       H  0.35915821  0.27555684  0.64661169     0.07230
Br1756     Br  0.36322622  0.24469389  0.70645424    -0.03380
C1757       C  0.44483159  0.20635619  0.83326519    -0.10010
C1758       C  0.42389775  0.18135504  0.82707658     0.06180
C1759       C  0.39277277  0.18503288  0.83776701    -0.03780
C1760       C  0.38218709  0.21393579  0.84909242    -0.08230
C1761       C  0.40233704  0.23921537  0.85511713     0.05300
C1762       C  0.43459007  0.23446313  0.84842778    -0.03260
Br1763     Br  0.46532042  0.26573478  0.85834102    -0.02950
H1764       H  0.46890018  0.20451840  0.82552142     0.09210
H1765       H  0.35769525  0.21596551  0.85428123     0.07230
Br1766     Br  0.36276929  0.15136956  0.83814273    -0.03380
C1767       C  0.52310681  0.25241023  0.70396212    -0.10010
C1768       C  0.50395583  0.27907029  0.70540221     0.06180
C1769       C  0.47127707  0.27571596  0.70656901    -0.03780
C1770       C  0.45921638  0.24670449  0.71494923    -0.08230
C1771       C  0.47948610  0.22159907  0.72154987     0.05300
C1772       C  0.51153511  0.22380355  0.71384302    -0.03260
Br1773     Br  0.54238323  0.19212255  0.72315212    -0.02950
H1774       H  0.54822599  0.25495037  0.70143661     0.09210
H1775       H  0.43423640  0.24439903  0.71839540     0.07230
Br1776     Br  0.44240033  0.31009021  0.70175460    -0.03380
C1777       C  0.48753232  0.35185427  0.63636787    -0.10010
C1778       C  0.48768805  0.38136192  0.65108865     0.06180
C1779       C  0.46214585  0.40197140  0.64600235    -0.03780
C1780       C  0.43793660  0.39344980  0.62511862    -0.08230
C1781       C  0.43834510  0.36411615  0.60983168     0.05300
C1782       C  0.46297785  0.34291632  0.61657598    -0.03260
Br1783     Br  0.46310797  0.30038843  0.60120634    -0.02950
H1784       H  0.50601650  0.33505525  0.64134144     0.09210
H1785       H  0.41932825  0.41006993  0.62015297     0.07230
Br1786     Br  0.46012589  0.44250613  0.66580421    -0.03380
C1787       C  0.55981828  0.31873758  0.84948032    -0.10010
C1788       C  0.54621877  0.31006819  0.82092966     0.06180
C1789       C  0.54087383  0.27747690  0.81578908    -0.03780
C1790       C  0.55509790  0.25460090  0.83521922    -0.08230
C1791       C  0.57172798  0.26366318  0.86211219     0.05300
C1792       C  0.57015812  0.29589929  0.87087029    -0.03260
Br1793     Br  0.57599260  0.31011264  0.91301516    -0.02950
H1794       H  0.56226526  0.34346041  0.85526735     0.09210
H1795       H  0.55329849  0.22989453  0.82918265     0.07230
Br1796     Br  0.51227974  0.26270527  0.78487909    -0.03380
C1797       C  0.73237669  0.20883029  0.53458098    -0.10010
C1798       C  0.71014054  0.20479813  0.51046297     0.06180
C1799       C  0.72043256  0.20261256  0.47905853    -0.03780
C1800       C  0.75233698  0.20287161  0.47272150    -0.08230
C1801       C  0.77473007  0.20523715  0.49696192     0.05300
C1802       C  0.76436032  0.20912019  0.52824023    -0.03260
Br1803     Br  0.79177944  0.21406446  0.56380952    -0.02950
H1804       H  0.72492154  0.21126575  0.55882384     0.09210
H1805       H  0.75955274  0.20041962  0.44841626     0.07230
Br1806     Br  0.69300596  0.19751857  0.44349947    -0.03380
C1807       C  0.49283022  0.21649256  0.51296494    -0.10010
C1808       C  0.52003177  0.23246551  0.52207727     0.06180
C1809       C  0.51892991  0.26522039  0.52852413    -0.03780
C1810       C  0.49072910  0.28080614  0.52614097    -0.08230
C1811       C  0.46370005  0.26458924  0.51782737     0.05300
C1812       C  0.46470864  0.23237379  0.51048444    -0.03260
Br1813     Br  0.42945031  0.20934135  0.49452001    -0.02950
H1814       H  0.49340716  0.19166155  0.50712763     0.09210
H1815       H  0.48977700  0.30575973  0.53148915     0.07230
Br1816     Br  0.55389963  0.29139553  0.54023464    -0.03380
C1817       C  0.63777422  0.28577345  0.60678546    -0.10010
C1818       C  0.61615023  0.26103217  0.60263449     0.06180
C1819       C  0.58747562  0.26246453  0.61880978    -0.03780
C1820       C  0.58147474  0.28718919  0.63955699    -0.08230
C1821       C  0.60383423  0.31067889  0.64578621     0.05300
C1822       C  0.63198936  0.31031221  0.62855680    -0.03260
Br1823     Br  0.66391552  0.34104543  0.63582599    -0.02950
H1824       H  0.65973667  0.28529166  0.59409962     0.09210
H1825       H  0.55937291  0.28735205  0.65204383     0.07230
Br1826     Br  0.55519085  0.23147697  0.61335403    -0.03380
C1827       C  0.52216977  0.11952964  0.60222515    -0.10010
C1828       C  0.55200906  0.13040332  0.61156031     0.06180
C1829       C  0.55771230  0.13412800  0.64406193    -0.03780
C1830       C  0.53359531  0.12823732  0.66590599    -0.08230
C1831       C  0.50313974  0.11971158  0.65618010     0.05300
C1832       C  0.49798986  0.11449476  0.62385936    -0.03260
Br1833     Br  0.45876252  0.09968720  0.60755589    -0.02950
H1834       H  0.51713533  0.11571663  0.57752229     0.09210
H1835       H  0.53838180  0.13162263  0.69067165     0.07230
Br1836     Br  0.59674039  0.14976864  0.65992347    -0.03380
C1837       C  0.54281956  0.19160983  0.42666187    -0.10010
C1838       C  0.55942078  0.16815784  0.44329031     0.06180
C1839       C  0.54557938  0.13775179  0.44479654    -0.03780
C1840       C  0.51663180  0.13185079  0.43072821    -0.08230
C1841       C  0.50023483  0.15477903  0.41358094     0.05300
C1842       C  0.51393718  0.18516595  0.41152464    -0.03260
Br1843     Br  0.49491500  0.21900931  0.38854760    -0.02950
H1844       H  0.55225233  0.21521763  0.42553027     0.09210
H1845       H  0.50727128  0.10826467  0.43263741     0.07230
Br1846     Br  0.56333583  0.10194394  0.46605815    -0.03380
C1847       C  0.93695902  0.96679193  0.82266593    -0.10010
C1848       C  0.92881259  0.93565633  0.83079169     0.06180
C1849       C  0.90217427  0.93083909  0.84928122    -0.03780
C1850       C  0.88531415  0.95668442  0.86090625    -0.08230
C1851       C  0.89488350  0.98785825  0.85495378     0.05300
C1852       C  0.92069143  0.99274480  0.83520003    -0.03260
Br1853     Br  0.93661723  0.03426496  0.82820566    -0.02950
H1854       H  0.95732313  0.97122684  0.80835205     0.09210
H1855       H  0.86482418  0.95214611  0.87488651     0.07230
Br1856     Br  0.88834560  0.88902669  0.85874360    -0.03380
C1857       C  0.94359349  0.80788318  0.93442720    -0.10010
C1858       C  0.92108698  0.83080484  0.94286244     0.06180
C1859       C  0.92782412  0.86257038  0.93476434    -0.03780
C1860       C  0.95605939  0.87058523  0.92033200    -0.08230
C1861       C  0.97882949  0.84810258  0.91239421     0.05300
C1862       C  0.97195545  0.81617040  0.91919812    -0.03260
Br1863     Br  0.00108964  0.78309563  0.91030549    -0.02950
H1864       H  0.93982783  0.78354455  0.94091138     0.09210
H1865       H  0.95995242  0.89516334  0.91492786     0.07230
Br1866     Br  0.90067012  0.89776825  0.94319471    -0.03380
C1867       C  0.25808177  0.96363122  0.53032517    -0.10010
C1868       C  0.22774838  0.95440616  0.53881849     0.06180
C1869       C  0.20498711  0.95010417  0.51476007    -0.03780
C1870       C  0.21384403  0.95210814  0.48336337    -0.08230
C1871       C  0.24497184  0.95756955  0.47514320     0.05300
C1872       C  0.26676598  0.96556305  0.49879671    -0.03260
Br1873     Br  0.30832027  0.98022837  0.48974108    -0.02950
H1874       H  0.27542032  0.96872794  0.54821990     0.09210
H1875       H  0.19668108  0.94693985  0.46529441     0.07230
Br1876     Br  0.16169116  0.93956647  0.52155501    -0.03380
C1877       C  0.10251321  0.88348616  0.69570540    -0.10010
C1878       C  0.13393903  0.87538985  0.69984304     0.06180
C1879       C  0.14281726  0.85983108  0.72792578    -0.03780
C1880       C  0.12152434  0.85630799  0.75261455    -0.08230
C1881       C  0.09050904  0.86628053  0.74942360     0.05300
C1882       C  0.08069368  0.87851255  0.71984157    -0.03260
Br1883     Br  0.03851406  0.89088648  0.71077327    -0.02950
H1884       H  0.09516944  0.89515364  0.67426971     0.09210
H1885       H  0.12919729  0.84538356  0.77432051     0.07230
Br1886     Br  0.18333770  0.84138551  0.73347657    -0.03380
C1887       C  0.27267926  0.84080500  0.62271622    -0.10010
C1888       C  0.24682340  0.84426376  0.60271116     0.06180
C1889       C  0.24995469  0.83352212  0.57133779    -0.03780
C1890       C  0.27844683  0.81974724  0.56102200    -0.08230
C1891       C  0.30467751  0.81743210  0.58123857     0.05300
C1892       C  0.30144031  0.82965384  0.61210388    -0.03260
Br1893     Br  0.33505073  0.83247686  0.64205734    -0.02950
H1894       H  0.27103749  0.84763034  0.64712692     0.09210
H1895       H  0.27952018  0.80948348  0.53769721     0.07230
Br1896     Br  0.21490308  0.83332223  0.54325834    -0.03380
C1897       C  0.95718673  0.17929292  0.61282245    -0.10010
C1898       C  0.97896919  0.15661939  0.60211014     0.06180
C1899       C  0.97453188  0.14345652  0.57206273    -0.03780
C1900       C  0.94793119  0.15097685  0.55446967    -0.08230
C1901       C  0.92527115  0.17245649  0.56548552     0.05300
C1902       C  0.93065801  0.18750183  0.59459861    -0.03260
Br1903     Br  0.90111629  0.21696502  0.61151209    -0.02950
H1904       H  0.95977151  0.18924651  0.63617176     0.09210
H1905       H  0.94505472  0.13984382  0.53169985     0.07230
Br1906     Br  0.00431074  0.11482499  0.55388152    -0.03380
C1907       C  0.00614018  0.99690723  0.72515152    -0.10010
C1908       C  0.02368741  0.02268220  0.73549828     0.06180
C1909       C  0.04454676  0.01937540  0.76093946    -0.03780
C1910       C  0.04262390  0.99274664  0.77953497    -0.08230
C1911       C  0.02093241  0.96957609  0.77191591     0.05300
C1912       C  0.00348776  0.97085151  0.74401373    -0.03260
Br1913     Br  0.97224327  0.94024093  0.73289436    -0.02950
H1914       H  0.99119542  0.99843114  0.70459010     0.09210
H1915       H  0.05778393  0.99013969  0.79984051     0.07230
Br1916     Br  0.07701405  0.04889656  0.77006311    -0.03380
C1917       C  0.12187415  0.06236676  0.64189494    -0.10010
C1918       C  0.09011600  0.05576834  0.63654207     0.06180
C1919       C  0.08238496  0.02542103  0.62473483    -0.03780
C1920       C  0.10542723  0.00209094  0.62135681    -0.08230
C1921       C  0.13693945  0.00804154  0.62825197     0.05300
C1922       C  0.14517297  0.03912651  0.63755445    -0.03260
Br1923     Br  0.18738943  0.05125444  0.64685580    -0.02950
H1924       H  0.12853674  0.08526828  0.65088499     0.09210
H1925       H  0.09854393  0.97896737  0.61313719     0.07230
Br1926     Br  0.04074513  0.01389147  0.61195337    -0.03380
C1927       C  0.26724364  0.04015739  0.98487842    -0.10010
C1928       C  0.23576902  0.03981013  0.97578219     0.06180
C1929       C  0.21257577  0.03502725  0.99906426    -0.03780
C1930       C  0.22076411  0.03601867  0.03079248    -0.08230
C1931       C  0.25187984  0.04067497  0.04001519     0.05300
C1932       C  0.27556744  0.04027875  0.01662193    -0.03260
Br1933     Br  0.31973738  0.04001058  0.02547527    -0.02950
H1934       H  0.28548757  0.04207074  0.96730745     0.09210
H1935       H  0.20242492  0.03432386  0.04828113     0.07230
Br1936     Br  0.16936211  0.02650776  0.98975332    -0.03380
C1937       C  0.33035082  0.06997407  0.81910169    -0.10010
C1938       C  0.30212623  0.08588548  0.82409225     0.06180
C1939       C  0.29350074  0.10975724  0.80211878    -0.03780
C1940       C  0.31240138  0.11634332  0.77606340    -0.08230
C1941       C  0.34108965  0.10119244  0.77148193     0.05300
C1942       C  0.35034912  0.07841026  0.79418183    -0.03260
Br1943     Br  0.39191808  0.06263074  0.79731736    -0.02950
H1944       H  0.33794206  0.05246574  0.83598980     0.09210
H1945       H  0.30519363  0.13467125  0.75987887     0.07230
Br1946     Br  0.25676202  0.13569748  0.80548057    -0.03380
C1947       C  0.26076887  0.17908589  0.89158926    -0.10010
C1948       C  0.24992599  0.15581986  0.91210162     0.06180
C1949       C  0.26812141  0.14984822  0.93947965    -0.03780
C1950       C  0.29620147  0.16650074  0.94526303    -0.08230
C1951       C  0.30742751  0.18915900  0.92405600     0.05300
C1952       C  0.28849098  0.19567059  0.89713510    -0.03260
Br1953     Br  0.29588638  0.22876835  0.86736801    -0.02950
H1954       H  0.24743041  0.18459669  0.87060639     0.09210
H1955       H  0.30946688  0.16149229  0.96641126     0.07230
Br1956     Br  0.25714028  0.11856856  0.96950567    -0.03380
C1957       C  0.21685693  0.98608109  0.78647154    -0.10010
C1958       C  0.21831269  0.01906541  0.78449004     0.06180
C1959       C  0.21681176  0.03398023  0.75508990    -0.03780
C1960       C  0.21683842  0.01559205  0.72824862    -0.08230
C1961       C  0.21709644  0.98258765  0.73023721     0.05300
C1962       C  0.21573258  0.96776134  0.75967487    -0.03260
Br1963     Br  0.21090958  0.92320890  0.76553212    -0.02950
H1964       H  0.21686703  0.97421817  0.80902349     0.09210
H1965       H  0.21707397  0.02733356  0.70568913     0.07230
Br1966     Br  0.21316889  0.07874436  0.74950657    -0.03380
C1967       C  0.09395405  0.96402163  0.89860319    -0.10010
C1968       C  0.10198158  0.93800109  0.87960345     0.06180
C1969       C  0.13214719  0.93716802  0.86621618    -0.03780
C1970       C  0.15303790  0.96234687  0.87126461    -0.08230
C1971       C  0.14416706  0.98918063  0.88878872     0.05300
C1972       C  0.11445125  0.98938219  0.90308524    -0.03260
Br1973     Br  0.10049627  0.02362849  0.92902801    -0.02950
H1974       H  0.07077769  0.96536569  0.90885536     0.09210
H1975       H  0.17575570  0.96170577  0.85998632     0.07230
Br1976     Br  0.14449380  0.90424968  0.83787054    -0.03380
C1977       C  0.07999780  0.12173597  0.79856587    -0.10010
C1978       C  0.09023016  0.13054431  0.76813361     0.06180
C1979       C  0.12222944  0.13684788  0.76390092    -0.03780
C1980       C  0.14322741  0.13219147  0.78880290    -0.08230
C1981       C  0.13350941  0.12049310  0.81834668     0.05300
C1982       C  0.10127112  0.11606036  0.82330513    -0.03260
Br1983     Br  0.08538993  0.09889829  0.86180501    -0.02950
H1984       H  0.05542474  0.11705797  0.80261418     0.09210
H1985       H  0.16783129  0.13652252  0.78449160     0.07230
Br1986     Br  0.13883479  0.15225216  0.72493906    -0.03380
C1987       C  0.47815960  0.72172917  0.55217201    -0.10010
C1988       C  0.45605321  0.74576372  0.54629056     0.06180
C1989       C  0.46705195  0.77584649  0.53777533    -0.03780
C1990       C  0.49912118  0.78206307  0.53922851    -0.08230
C1991       C  0.52075609  0.75860174  0.54794260     0.05300
C1992       C  0.51011763  0.72773645  0.55284092    -0.03260
Br1993     Br  0.53718742  0.69311452  0.56349779    -0.02950
H1994       H  0.47068178  0.69801125  0.55755007     0.09210
H1995       H  0.50716949  0.80564564  0.53398990     0.07230
Br1996     Br  0.44040911  0.80941226  0.52358001    -0.03380
C1997       C  0.97866064  0.77860709  0.47093627    -0.10010
C1998       C  0.95657568  0.75430581  0.46707050     0.06180
C1999       C  0.96725916  0.72350572  0.46145760    -0.03780
C2000       C  0.99924527  0.71798011  0.45829289    -0.08230
C2001       C  0.02134670  0.74258211  0.46026477     0.05300
C2002       C  0.01068518  0.77317365  0.46746744    -0.03260
Br2003     Br  0.03768716  0.80904940  0.47169637    -0.02950
H2004       H  0.97092043  0.80244627  0.47570689     0.09210
H2005       H  0.00665252  0.69408953  0.45334951     0.07230
Br2006     Br  0.93983650  0.68824118  0.45522246    -0.03380
C2007       C  0.76690745  0.77639730  0.52492958    -0.10010
C2008       C  0.76538879  0.77269088  0.49204049     0.06180
C2009       C  0.73620130  0.77005798  0.47698782    -0.03780
C2010       C  0.70936398  0.77105030  0.49508171    -0.08230
C2011       C  0.71107935  0.77435532  0.52791450     0.05300
C2012       C  0.74009840  0.77717838  0.54294240    -0.03260
Br2013     Br  0.74511897  0.78295854  0.58748592    -0.02950
H2014       H  0.78913191  0.77819184  0.53706166     0.09210
H2015       H  0.68696475  0.76860164  0.48335133     0.07230
Br2016     Br  0.73055208  0.76521627  0.43238039    -0.03380
C2017       C  0.78737269  0.67040108  0.45768076    -0.10010
C2018       C  0.80589887  0.68576923  0.43493944     0.06180
C2019       C  0.79531836  0.68454710  0.40317433    -0.03780
C2020       C  0.76686712  0.67063336  0.39550326    -0.08230
C2021       C  0.74837923  0.65499713  0.41770829     0.05300
C2022       C  0.75954775  0.65421439  0.44922717    -0.03260
Br2023     Br  0.73889682  0.63080515  0.48158022    -0.02950
H2024       H  0.79466378  0.67069768  0.48209271     0.09210
H2025       H  0.75981542  0.67110254  0.37102368     0.07230
Br2026     Br  0.81720140  0.70096994  0.36727611    -0.03380
C2027       C  0.89803171  0.70258121  0.37164796    -0.10010
C2028       C  0.90551810  0.73383665  0.36342188     0.06180
C2029       C  0.92797811  0.73802358  0.33952641    -0.03780
C2030       C  0.93970683  0.71163938  0.32278018    -0.08230
C2031       C  0.92864515  0.68079506  0.32869789     0.05300
C2032       C  0.90850996  0.67658777  0.35429749    -0.03260
Br2033     Br  0.89325956  0.63562620  0.36542364    -0.02950
H2034       H  0.88315304  0.69771418  0.39117544     0.09210
H2035       H  0.95569295  0.71572207  0.30353367     0.07230
Br2036     Br  0.94110356  0.77923566  0.32711176    -0.03380
C2037       C  0.81177163  0.01290655  0.73530713    -0.10010
C2038       C  0.78286304  0.00551886  0.72196019     0.06180
C2039       C  0.75737295  0.99907356  0.74198766    -0.03780
C2040       C  0.76123155  0.00041568  0.77492526    -0.08230
C2041       C  0.79065086  0.00713182  0.78818701     0.05300
C2042       C  0.81596060  0.01326089  0.76774653    -0.03260
Br2043     Br  0.85778153  0.02007598  0.78212902    -0.02950
H2044       H  0.83196209  0.01614498  0.72024891     0.09210
H2045       H  0.74123317  0.99667183  0.79009309     0.07230
Br2046     Br  0.71749060  0.98724271  0.72510571    -0.03380
C2047       C  0.79413522  0.07632860  0.54259535    -0.10010
C2048       C  0.81616225  0.06144678  0.56223922     0.06180
C2049       C  0.84825938  0.06657546  0.55586397    -0.03780
C2050       C  0.85760745  0.08433381  0.53013490    -0.08230
C2051       C  0.83602776  0.09799118  0.50943412     0.05300
C2052       C  0.80370985  0.09483687  0.51667026    -0.03260
Br2053     Br  0.77138326  0.11374468  0.49174476    -0.02950
H2054       H  0.76943041  0.07196741  0.54618518     0.09210
H2055       H  0.88249668  0.08710727  0.52623913     0.07230
Br2056     Br  0.88185374  0.04810779  0.57924610    -0.03380
C2057       C  0.90011076  0.01314498  0.69367171    -0.10010
C2058       C  0.87858213  0.01968320  0.66950967     0.06180
C2059       C  0.87299543  0.05203197  0.66292470    -0.03780
C2060       C  0.89373659  0.07534269  0.67307742    -0.08230
C2061       C  0.91752891  0.06845448  0.69439120     0.05300
C2062       C  0.91809647  0.03765079  0.70732508    -0.03260
Br2063     Br  0.94055002  0.02853314  0.74494821    -0.02950
H2064       H  0.90293959  0.98923298  0.70199074     0.09210
H2065       H  0.89085179  0.09926851  0.66473331     0.07230
Br2066     Br  0.83478652  0.06740983  0.64571719    -0.03380
C2067       C  0.72455369  0.87518194  0.65319842    -0.10010
C2068       C  0.71921774  0.90673792  0.64495624     0.06180
C2069       C  0.68823472  0.91537659  0.63587405    -0.03780
C2070       C  0.66547114  0.89198277  0.63041964    -0.08230
C2071       C  0.67234029  0.86008420  0.63532811     0.05300
C2072       C  0.70144245  0.85227109  0.64922861    -0.03260
Br2073     Br  0.71113478  0.81043299  0.66347768    -0.02950
H2074       H  0.74721923  0.86789123  0.66202174     0.09210
H2075       H  0.64295026  0.89864216  0.62075223     0.07230
Br2076     Br  0.67512386  0.95816880  0.62933395    -0.03380
C2077       C  0.87952765  0.89620578  0.55324388    -0.10010
C2078       C  0.85715203  0.88869769  0.57658709     0.06180
C2079       C  0.83893518  0.86118822  0.57166760    -0.03780
C2080       C  0.84364377  0.84227118  0.54482874    -0.08230
C2081       C  0.86556434  0.85010428  0.52150336     0.05300
C2082       C  0.88368721  0.87740851  0.52605591    -0.03260
Br2083     Br  0.91534239  0.88914535  0.49643765    -0.02950
H2084       H  0.89366212  0.91717227  0.55582898     0.09210
H2085       H  0.82961312  0.82127337  0.54193079     0.07230
Br2086     Br  0.80620255  0.84806609  0.59965246    -0.03380
C2087       C  0.68822955  0.97043644  0.26713848    -0.10010
C2088       C  0.69936800  0.99340055  0.28847388     0.06180
C2089       C  0.71312430  0.02099629  0.27639904    -0.03780
C2090       C  0.71368864  0.02575041  0.24391842    -0.08230
C2091       C  0.70124558  0.00337267  0.22300708     0.05300
C2092       C  0.68917824  0.97514199  0.23473531    -0.03260
Br2093     Br  0.67095828  0.94364874  0.20794628    -0.02950
H2094       H  0.67779004  0.94884590  0.27557995     0.09210
H2095       H  0.72323603  0.04753930  0.23488536     0.07230
Br2096     Br  0.73163276  0.05314050  0.30219945    -0.03380
C2097       C  0.54175050  0.04009338  0.35916849    -0.10010
C2098       C  0.55380352  0.06616700  0.34266370     0.06180
C2099       C  0.58519964  0.06487599  0.33268035    -0.03780
C2100       C  0.60376031  0.03811498  0.33963172    -0.08230
C2101       C  0.59133447  0.01212305  0.35615119     0.05300
C2102       C  0.55976958  0.01317612  0.36507721    -0.03260
Br2103     Br  0.53995646  0.97773000  0.38448605    -0.02950
H2104       H  0.51787635  0.04039951  0.36756257     0.09210
H2105       H  0.62834599  0.03824193  0.33342501     0.07230
Br2106     Br  0.60430110  0.10036442  0.31276619    -0.03380
C2107       C  0.65030716  0.05020087  0.46473760    -0.10010
C2108       C  0.67254177  0.06304087  0.44387865     0.06180
C2109       C  0.68663990  0.09180881  0.45208904    -0.03780
C2110       C  0.67714966  0.10772267  0.47980831    -0.08230
C2111       C  0.65380729  0.09515214  0.49980373     0.05300
C2112       C  0.64136879  0.06548987  0.49237543    -0.03260
Br2113     Br  0.61210188  0.04433101  0.51926637    -0.02950
H2114       H  0.63943786  0.02780039  0.45953468     0.09210
H2115       H  0.68673594  0.13079013  0.48475073     0.07230
Br2116     Br  0.71622086  0.11138989  0.42457867    -0.03380
C2117       C  0.71885978  0.95368478  0.50073454    -0.10010
C2118       C  0.73469394  0.97155339  0.47822379     0.06180
C2119       C  0.76713510  0.97638487  0.48063936    -0.03780
C2120       C  0.78316301  0.96400453  0.50604516    -0.08230
C2121       C  0.76679440  0.94912964  0.53024504     0.05300
C2122       C  0.73481424  0.94253887  0.52692123    -0.03260
Br2123     Br  0.71204833  0.92007315  0.55837243    -0.02950
H2124       H  0.69411529  0.94875088  0.49812491     0.09210
H2125       H  0.80761464  0.97012206  0.50906786     0.07230
Br2126     Br  0.78977305  0.00393518  0.45305395    -0.03380
C2127       C  0.61438728  0.90964287  0.48164835    -0.10010
C2128       C  0.62665330  0.89928231  0.45261154     0.06180
C2129       C  0.62990280  0.86662326  0.44769903    -0.03780
C2130       C  0.62195972  0.84542059  0.47186944    -0.08230
C2131       C  0.61108574  0.85598965  0.50148054     0.05300
C2132       C  0.60679310  0.88865445  0.50583370    -0.03260
Br2133     Br  0.59041899  0.90656363  0.54397209    -0.02950
H2134       H  0.61135817  0.93461018  0.48597496     0.09210
H2135       H  0.62567739  0.82050391  0.46789183     0.07230
Br2136     Br  0.64786693  0.84978408  0.40988739    -0.03380
C2137       C  0.74848625  0.86877269  0.36957394    -0.10010
C2138       C  0.75553829  0.90045419  0.37540623     0.06180
C2139       C  0.78701140  0.90804591  0.38314253    -0.03780
C2140       C  0.80928257  0.88402673  0.38834178    -0.08230
C2141       C  0.80148813  0.85215463  0.38459160     0.05300
C2142       C  0.77110322  0.84503068  0.37295540    -0.03260
Br2143     Br  0.75889181  0.80354682  0.35965288    -0.02950
H2144       H  0.72513403  0.86234259  0.36201908     0.09210
H2145       H  0.83246795  0.89032721  0.39647826     0.07230
Br2146     Br  0.80127770  0.95043873  0.38833644    -0.03380
C2147       C  0.42441987  0.98026880  0.74730895    -0.10010
C2148       C  0.45209576  0.96653742  0.75780865     0.06180
C2149       C  0.47797842  0.98574836  0.76480301    -0.03780
C2150       C  0.47559118  0.01848111  0.76090539    -0.08230
C2151       C  0.44796057  0.03191126  0.74895681     0.05300
C2152       C  0.42269228  0.01209842  0.74087166    -0.03260
Br2153     Br  0.38437466  0.02612173  0.72182715    -0.02950
H2154       H  0.40341569  0.96640014  0.74518312     0.09210
H2155       H  0.49541744  0.03330143  0.76654579     0.07230
Br2156     Br  0.51612431  0.96828757  0.78098098    -0.03380
C2157       C  0.33271419  0.92868653  0.68816147    -0.10010
C2158       C  0.30186325  0.91749513  0.68811128     0.06180
C2159       C  0.29304951  0.89682955  0.71293285    -0.03780
C2160       C  0.31284088  0.89146805  0.73851205    -0.08230
C2161       C  0.34345428  0.90252618  0.73873617     0.05300
C2162       C  0.35402398  0.91918172  0.71181424    -0.03260
Br2163     Br  0.39747532  0.92130893  0.70132620    -0.02950
H2164       H  0.34107524  0.94202207  0.66817903     0.09210
H2165       H  0.30501139  0.87626702  0.75738479     0.07230
Br2166     Br  0.25650575  0.87103348  0.71280172    -0.03380
C2167       C  0.41961477  0.82153530  0.66348024    -0.10010
C2168       C  0.43662543  0.81434158  0.69052687     0.06180
C2169       C  0.44460512  0.78230910  0.69545933    -0.03780
C2170       C  0.42911266  0.75824930  0.67866323    -0.08230
C2171       C  0.40905469  0.76576918  0.65368627     0.05300
C2172       C  0.40899417  0.79757047  0.64354482    -0.03260
Br2173     Br  0.40498871  0.80928737  0.60050854    -0.02950
H2174       H  0.41574292  0.84594185  0.65717101     0.09210
H2175       H  0.43344460  0.73382300  0.68450558     0.07230
Br2176     Br  0.47976618  0.77039132  0.72018459    -0.03380
C2177       C  0.54595928  0.50794688  0.78954868    -0.10010
C2178       C  0.53583838  0.52959875  0.76635628     0.06180
C2179       C  0.52266201  0.51775163  0.73830357    -0.03780
C2180       C  0.52211456  0.48526536  0.73319457    -0.08230
C2181       C  0.53397271  0.46408691  0.75566880     0.05300
C2182       C  0.54500030  0.47554552  0.78447252    -0.03260
Br2183     Br  0.56184308  0.44830842  0.81629975    -0.02950
H2184       H  0.55577610  0.51610082  0.81159340     0.09210
H2185       H  0.51323574  0.47644330  0.71097571     0.07230
Br2186     Br  0.50527945  0.54390772  0.70584234    -0.03380
C2187       C  0.54415957  0.69972004  0.67723157    -0.10010
C2188       C  0.56731455  0.68451266  0.69545576     0.06180
C2189       C  0.59701301  0.69961562  0.69766616    -0.03780
C2190       C  0.60298078  0.72747693  0.68162850    -0.08230
C2191       C  0.58062359  0.74217843  0.66259408     0.05300
C2192       C  0.55052178  0.72807467  0.66078892    -0.03260
Br2193     Br  0.51698766  0.74617812  0.63680323    -0.02950
H2194       H  0.52096139  0.68961337  0.67581044     0.09210
H2195       H  0.62611269  0.73760198  0.68395970     0.07230
Br2196     Br  0.63161223  0.68638828  0.72337895    -0.03380
C2197       C  0.48069408  0.72230210  0.79417668    -0.10010
C2198       C  0.51254148  0.72280376  0.78617732     0.06180
C2199       C  0.52943454  0.75130200  0.78696260    -0.03780
C2200       C  0.51349434  0.77881645  0.79338593    -0.08230
C2201       C  0.48096664  0.77842365  0.79697813     0.05300
C2202       C  0.46470623  0.74992101  0.79946338    -0.03260
Br2203     Br  0.42049906  0.74696868  0.80720539    -0.02950
H2204       H  0.46763997  0.70048653  0.79493931     0.09210
H2205       H  0.52611778  0.80086691  0.79194257     0.07230
Br2206     Br  0.57353011  0.75544645  0.77859912    -0.03380
C2207       C  0.76351284  0.78879021  0.98948952    -0.10010
C2208       C  0.77263930  0.79620249  0.02024645     0.06180
C2209       C  0.74912459  0.79997534  0.04368166    -0.03780
C2210       C  0.71761659  0.79810086  0.03537900    -0.08230
C2211       C  0.70866441  0.79269795  0.00424667     0.05300
C2212       C  0.73202541  0.78698605  0.98128431    -0.03260
Br2213     Br  0.72330296  0.77661735  0.93810672    -0.02950
H2214       H  0.78095150  0.78505622  0.97136966     0.09210
H2215       H  0.69997356  0.80234610  0.05320278     0.07230
Br2216     Br  0.75696611  0.80871611  0.08746937    -0.03380
C2217       C  0.65271514  0.88908073  0.05288549    -0.10010
C2218       C  0.65640774  0.89881068  0.02141065     0.06180
C2219       C  0.67597933  0.92465647  0.01530511    -0.03780
C2220       C  0.68859420  0.94202657  0.04060903    -0.08230
C2221       C  0.68173871  0.93412910  0.07214161     0.05300
C2222       C  0.66513216  0.90639327  0.07798121    -0.03260
Br2223     Br  0.65861836  0.89186599  0.12015762    -0.02950
H2224       H  0.63944006  0.86827220  0.05829311     0.09210
H2225       H  0.70176160  0.96310991  0.03547800     0.07230
Br2226     Br  0.68351744  0.93880324  0.97322564    -0.03380
C2227       C  0.53909467  0.85146095  0.06112001    -0.10010
C2228       C  0.55362774  0.82266084  0.06896466     0.06180
C2229       C  0.53876380  0.80371156  0.09163188    -0.03780
C2230       C  0.51213388  0.81511015  0.10801849    -0.08230
C2231       C  0.49908077  0.84512358  0.10156668     0.05300
C2232       C  0.51231995  0.86251819  0.07661315    -0.03260
Br2233     Br  0.49567280  0.90207554  0.06232450    -0.02950
H2234       H  0.54880655  0.86600921  0.04266554     0.09210
H2235       H  0.50245902  0.80093840  0.12678602     0.07230
Br2236     Br  0.55479243  0.76297217  0.10179951    -0.03380
C2237       C  0.59190649  0.73887128  0.89148465    -0.10010
C2238       C  0.61962677  0.73870199  0.90896162     0.06180
C2239       C  0.63967651  0.71212536  0.90603355    -0.03780
C2240       C  0.63337935  0.68848531  0.88336479    -0.08230
C2241       C  0.60615659  0.68973545  0.86484457     0.05300
C2242       C  0.58456376  0.71426407  0.87092501    -0.03260
Br2243     Br  0.54271683  0.71327575  0.85535038    -0.02950
H2244       H  0.57495942  0.75756488  0.89505198     0.09210
H2245       H  0.64993950  0.66945681  0.87995021     0.07230
Br2246     Br  0.67598385  0.70687095  0.93190370    -0.03380
C2247       C  0.51793560  0.87714657  0.91680186    -0.10010
C2248       C  0.54922890  0.87177478  0.90719259     0.06180
C2249       C  0.55587310  0.87382379  0.87473081    -0.03780
C2250       C  0.53158269  0.87997284  0.85316243    -0.08230
C2251       C  0.50013184  0.88385633  0.86284505     0.05300
C2252       C  0.49369868  0.88277045  0.89533599    -0.03260
Br2253     Br  0.45252144  0.88847555  0.91259653    -0.02950
H2254       H  0.51172889  0.87612566  0.94147867     0.09210
H2255       H  0.53734938  0.88063660  0.82836289     0.07230
Br2256     Br  0.59698584  0.86718074  0.85782927    -0.03380
C2257       C  0.26371775  0.71304358  0.03125148    -0.10010
C2258       C  0.27229051  0.71040257  0.99953429     0.06180
C2259       C  0.24849792  0.71116147  0.97623078    -0.03780
C2260       C  0.21718920  0.71172349  0.98515402    -0.08230
C2261       C  0.20857944  0.71108854  0.01690541     0.05300
C2262       C  0.23227213  0.71360833  0.04016004    -0.03260
Br2263     Br  0.22406685  0.71812438  0.08444666    -0.02950
H2264       H  0.28153470  0.71365304  0.04939596     0.09210
H2265       H  0.19945812  0.71079914  0.96693997     0.07230
Br2266     Br  0.25589688  0.71072581  0.93158878    -0.03380
C2267       C  0.31093544  0.60646509  0.03439862    -0.10010
C2268       C  0.33675720  0.59730708  0.01568780     0.06180
C2269       C  0.35259416  0.56933181  0.02367902    -0.03780
C2270       C  0.34427517  0.55258860  0.05067484    -0.08230
C2271       C  0.31959416  0.56232345  0.07044695     0.05300
C2272       C  0.30210615  0.58906029  0.06137284    -0.03260
Br2273     Br  0.26777525  0.60401793  0.08623223    -0.02950
H2274       H  0.29862705  0.62813252  0.02905031     0.09210
H2275       H  0.35728448  0.53134489  0.05605317     0.07230
Br2276     Br  0.38578625  0.55242656  0.99826632    -0.03380
C2277       C  0.45396658  0.69841712  0.06506802    -0.10010
C2278       C  0.42256409  0.69173986  0.07326981     0.06180
C2279       C  0.41724925  0.67425300  0.10066835    -0.03780
C2280       C  0.44249120  0.66206066  0.11782551    -0.08230
C2281       C  0.47372186  0.66543176  0.10772963     0.05300
C2282       C  0.47936237  0.68478758  0.08152758    -0.03260
Br2283     Br  0.52078780  0.69007945  0.06526253    -0.02950
H2284       H  0.45898962  0.71218266  0.04436098     0.09210
H2285       H  0.43714277  0.64891484  0.13862773     0.07230
Br2286     Br  0.37560294  0.66497509  0.11461981    -0.03380
C2287       C  0.48742722  0.72276656  0.97024254    -0.10010
C2288       C  0.46075230  0.74164787  0.97271540     0.06180
C2289       C  0.46321955  0.77470060  0.97192772    -0.03780
C2290       C  0.49266461  0.78803985  0.97324036    -0.08230
C2291       C  0.51928925  0.76891533  0.97535294     0.05300
C2292       C  0.51678941  0.73595357  0.97173679    -0.03260
Br2293     Br  0.55121306  0.70654308  0.97231395    -0.02950
H2294       H  0.48546840  0.69734616  0.96946263     0.09210
H2295       H  0.49462320  0.81344956  0.97443259     0.07230
Br2296     Br  0.42821371  0.80324037  0.97263891    -0.03380
C2297       C  0.46836253  0.64169253  0.91134635    -0.10010
C2298       C  0.43652485  0.63691421  0.90371840     0.06180
C2299       C  0.42972277  0.62433998  0.87368296    -0.03780
C2300       C  0.45429492  0.61787585  0.85228458    -0.08230
C2301       C  0.48607538  0.62334164  0.86008290     0.05300
C2302       C  0.49267123  0.63512898  0.89048407    -0.03260
Br2303     Br  0.53404570  0.64370723  0.90625613    -0.02950
H2304       H  0.47494281  0.65109165  0.93408414     0.09210
H2305       H  0.44837408  0.60867241  0.82926507     0.07230
Br2306     Br  0.38780990  0.61509393  0.86054904    -0.03380
C2307       C  0.34764768  0.81043185  0.87458010    -0.10010
C2308       C  0.37878272  0.81504083  0.86511766     0.06180
C2309       C  0.40204964  0.79496088  0.87771515    -0.03780
C2310       C  0.39387319  0.76920774  0.89653905    -0.08230
C2311       C  0.36268089  0.76362054  0.90492761     0.05300
C2312       C  0.33968106  0.78554975  0.89508059    -0.03260
Br2313     Br  0.29697000  0.78183019  0.90792366    -0.02950
H2314       H  0.32937389  0.82541358  0.86516962     0.09210
H2315       H  0.41217660  0.75385797  0.90533735     0.07230
Br2316     Br  0.44574217  0.80227035  0.87042847    -0.03380
C2317       C  0.76800009  0.46584437  0.99729456    -0.10010
C2318       C  0.74568593  0.45554284  0.97534495     0.06180
C2319       C  0.71522481  0.44833276  0.98548574    -0.03780
C2320       C  0.70841574  0.44930900  0.01742822    -0.08230
C2321       C  0.73139478  0.45730199  0.03981463     0.05300
C2322       C  0.76119045  0.46702075  0.02929460    -0.03260
Br2323     Br  0.79427868  0.48118958  0.05652530    -0.02950
H2324       H  0.79126155  0.47236505  0.98957642     0.09210
H2325       H  0.68515901  0.44240669  0.02474791     0.07230
Br2326     Br  0.68247310  0.43429048  0.95778529    -0.03380
C2327       C  0.72302136  0.35118409  0.94751364    -0.10010
C2328       C  0.73769232  0.34255882  0.91887921     0.06180
C2329       C  0.72425024  0.31788089  0.90121222    -0.03780
C2330       C  0.69600989  0.30455067  0.91063596    -0.08230
C2331       C  0.68067236  0.31362155  0.93856057     0.05300
C2332       C  0.69506031  0.33659458  0.95763015    -0.03260
Br2333     Br  0.67650183  0.35006903  0.99640128    -0.02950
H2334       H  0.73261936  0.37015536  0.96155434     0.09210
H2335       H  0.68632183  0.28609569  0.89599659     0.07230
Br2336     Br  0.74313238  0.30021691  0.86406064    -0.03380
C2337       C  0.67979589  0.38159262  0.81820225    -0.10010
C2338       C  0.67835234  0.41268557  0.82965991     0.06180
C2339       C  0.65863013  0.43409691  0.81368784    -0.03780
C2340       C  0.64200620  0.42445468  0.78655613    -0.08230
C2341       C  0.64431153  0.39342210  0.77467453     0.05300
C2342       C  0.66361324  0.37194754  0.79130818    -0.03260
Br2343     Br  0.67055868  0.32888430  0.77894277    -0.02950
H2344       H  0.69479880  0.36443623  0.82955086     0.09210
H2345       H  0.62659167  0.44120685  0.77516685     0.07230
Br2346     Br  0.65200379  0.47602005  0.82891277    -0.03380
C2347       C  0.76895452  0.53854069  0.51903516    -0.10010
C2348       C  0.74495644  0.54337468  0.54107962     0.06180
C2349       C  0.71387902  0.54633874  0.53057799    -0.03780
C2350       C  0.70774247  0.54645151  0.49839037    -0.08230
C2351       C  0.73205946  0.54395768  0.47613678     0.05300
C2352       C  0.76294568  0.53878440  0.48685807    -0.03260
Br2353     Br  0.79861908  0.53316001  0.45981658    -0.02950
H2354       H  0.79290042  0.53539750  0.52686995     0.09210
H2355       H  0.68375477  0.54983127  0.49085047     0.07230
Br2356     Br  0.67907363  0.55324762  0.55836585    -0.03380
C2357       C  0.71635212  0.65840695  0.57675798    -0.10010
C2358       C  0.72195478  0.65283272  0.60904780     0.06180
C2359       C  0.69930329  0.66429528  0.63072649    -0.03780
C2360       C  0.67260182  0.68015934  0.62014262    -0.08230
C2361       C  0.66761198  0.68731516  0.58822394     0.05300
C2362       C  0.69004298  0.67595563  0.56632498    -0.03260
Br2363     Br  0.68709869  0.68474280  0.52216510    -0.02950
H2364       H  0.73289084  0.64970452  0.55950173     0.09210
H2365       H  0.65619658  0.68848410  0.63773117     0.07230
Br2366     Br  0.70237994  0.66039655  0.67580727    -0.03380
C2367       C  0.67801454  0.55035754  0.71902187    -0.10010
C2368       C  0.67342614  0.56369466  0.68888586     0.06180
C2369       C  0.65148144  0.58790173  0.68583938    -0.03780
C2370       C  0.63790241  0.60108376  0.71251817    -0.08230
C2371       C  0.64300694  0.58923433  0.74303275     0.05300
C2372       C  0.66274669  0.56274111  0.74588230    -0.03260
Br2373     Br  0.67301928  0.54585681  0.78625503    -0.02950
H2374       H  0.69527519  0.53191995  0.72217124     0.09210
H2375       H  0.62374311  0.62144271  0.70848140     0.07230
Br2376     Br  0.64029048  0.60471714  0.64538235    -0.03380
C2377       C  0.77325481  0.47984239  0.72934480    -0.10010
C2378       C  0.76832643  0.51249225  0.73094080     0.06180
C2379       C  0.76408589  0.52746816  0.76014975    -0.03780
C2380       C  0.76219246  0.50929093  0.78674973    -0.08230
C2381       C  0.76540315  0.47651150  0.78502989     0.05300
C2382       C  0.77189401  0.46168626  0.75628524    -0.03260
Br2383     Br  0.77996794  0.41747210  0.75218812    -0.02950
H2384       H  0.77718766  0.46816134  0.70700653     0.09210
H2385       H  0.75782008  0.52102700  0.80899702     0.07230
Br2386     Br  0.76094452  0.57224094  0.76630311    -0.03380
C2387       C  0.96562581  0.22666439  0.72345378    -0.10010
C2388       C  0.99654737  0.21615170  0.72137542     0.06180
C2389       C  0.02103348  0.23869415  0.72331571    -0.03780
C2390       C  0.01412371  0.27083246  0.72238760    -0.08230
C2391       C  0.98314923  0.28134873  0.72082496     0.05300
C2392       C  0.95871749  0.25884089  0.72393576    -0.03260
Br2393     Br  0.91530639  0.26964357  0.72962322    -0.02950
H2394       H  0.94661693  0.20984172  0.72368376     0.09210
H2395       H  0.03317539  0.28759336  0.72177648     0.07230
Br2396     Br  0.06457218  0.22785043  0.72789431    -0.03380
C2397       C  0.00629580  0.36264326  0.57853194    -0.10010
C2398       C  0.99635761  0.34257045  0.60254877     0.06180
C2399       C  0.01467837  0.31527114  0.60849254    -0.03780
C2400       C  0.04295651  0.31005281  0.59183415    -0.08230
C2401       C  0.05407085  0.33191190  0.56959084     0.05300
C2402       C  0.03454682  0.35823100  0.56277883    -0.03260
Br2403     Br  0.04304548  0.38987196  0.53174397    -0.02950
H2404       H  0.99239574  0.38316925  0.57264471     0.09210
H2405       H  0.05652518  0.28904192  0.59665183     0.07230
Br2406     Br  0.00294134  0.28442364  0.63905085    -0.03380
C2407       C  0.07303116  0.44758011  0.69712168    -0.10010
C2408       C  0.05386486  0.43325218  0.67410481     0.06180
C2409       C  0.05081137  0.44928983  0.64487229    -0.03780
C2410       C  0.06647066  0.47762946  0.63937337    -0.08230
C2411       C  0.08618824  0.49167155  0.66178046     0.05300
C2412       C  0.08930530  0.47607327  0.69119076    -0.03260
Br2413     Br  0.11560281  0.49174430  0.72418070    -0.02950
H2414       H  0.07534566  0.43661861  0.71999743     0.09210
H2415       H  0.06336832  0.48862651  0.61660212     0.07230
Br2416     Br  0.02451118  0.43599654  0.61069425    -0.03380
C2417       C  0.88156742  0.46893706  0.66665999    -0.10010
C2418       C  0.88321331  0.44212855  0.64709519     0.06180
C2419       C  0.86405910  0.44128509  0.62011815    -0.03780
C2420       C  0.84425759  0.46703159  0.61309013    -0.08230
C2421       C  0.84356039  0.49432160  0.63219362     0.05300
C2422       C  0.86217147  0.49463014  0.65960530    -0.03260
Br2423     Br  0.86086045  0.52857256  0.68951494    -0.02950
H2424       H  0.89607296  0.47016587  0.68757245     0.09210
H2425       H  0.82966538  0.46592669  0.59226455     0.07230
Br2426     Br  0.86583119  0.40671023  0.59116172    -0.03380
C2427       C  0.86498060  0.35802126  0.76859284    -0.10010
C2428       C  0.89573052  0.36864752  0.77262598     0.06180
C2429       C  0.90472538  0.37964634  0.80298582    -0.03780
C2430       C  0.88210039  0.38376286  0.82677023    -0.08230
C2431       C  0.85079600  0.37543780  0.82162503     0.05300
C2432       C  0.84304185  0.36024441  0.79294966    -0.03260
Br2433     Br  0.80286895  0.34111818  0.78600107    -0.02950
H2434       H  0.85794518  0.34769930  0.74636342     0.09210
H2435       H  0.88872670  0.39491819  0.84871917     0.07230
Br2436     Br  0.94683004  0.39177254  0.81320970    -0.03380
C2437       C  0.00645190  0.73038898  0.78787944    -0.10010
C2438       C  0.97997547  0.71991316  0.80413498     0.06180
C2439       C  0.95977428  0.74234907  0.81867374    -0.03780
C2440       C  0.96717289  0.77405871  0.81766369    -0.08230
C2441       C  0.99451561  0.78404988  0.80321253     0.05300
C2442       C  0.01387243  0.76230221  0.78733381    -0.03260
Br2443     Br  0.05037509  0.77496285  0.76428404    -0.02950
H2444       H  0.02166680  0.71374546  0.77602841     0.09210
H2445       H  0.95257045  0.79082543  0.83015929     0.07230
Br2446     Br  0.92355576  0.73245017  0.84377179    -0.03380
C2447       C  0.01579423  0.62890348  0.93243990    -0.10010
C2448       C  0.00370381  0.64948005  0.90966958     0.06180
C2449       C  0.02034080  0.67808817  0.90497226    -0.03780
C2450       C  0.04746693  0.68537531  0.92269520    -0.08230
C2451       C  0.05978837  0.66438326  0.94499782     0.05300
C2452       C  0.04296740  0.63576842  0.94980036    -0.03260
Br2453     Br  0.05366816  0.60459370  0.98073998    -0.02950
H2454       H  0.00405219  0.60676496  0.93676770     0.09210
H2455       H  0.05926531  0.70754494  0.91866211     0.07230
Br2456     Br  0.00921940  0.70779882  0.87354463    -0.03380
C2457       C  0.07036733  0.57155928  0.85854599    -0.10010
C2458       C  0.05849793  0.57093999  0.82782198     0.06180
C2459       C  0.06612243  0.54425186  0.80920124    -0.03780
C2460       C  0.08350793  0.51886623  0.82205624    -0.08230
C2461       C  0.09250509  0.51838922  0.85400033     0.05300
C2462       C  0.08553538  0.54575328  0.87200517    -0.03260
Br2463     Br  0.09327870  0.55081419  0.91591481    -0.02950
H2464       H  0.06526569  0.59161204  0.87353832     0.09210
H2465       H  0.08908899  0.49890515  0.80717663     0.07230
Br2466     Br  0.05270487  0.53985233  0.76678931    -0.03380
C2467       C  0.94446087  0.50828357  0.77279177    -0.10010
C2468       C  0.96376683  0.53236814  0.76217872     0.06180
C2469       C  0.97846924  0.53053506  0.73266097    -0.03780
C2470       C  0.97929119  0.50187202  0.71756120    -0.08230
C2471       C  0.96366582  0.47614387  0.73059987     0.05300
C2472       C  0.94296203  0.48051445  0.75593142    -0.03260
Br2473     Br  0.91044234  0.45143019  0.76627415    -0.02950
H2474       H  0.93043132  0.51127897  0.79383782     0.09210
H2475       H  0.99345799  0.49944830  0.69655402     0.07230
Br2476     Br  0.99973211  0.56502041  0.71278766    -0.03380
C2477       C  0.85635736  0.64001671  0.75336250    -0.10010
C2478       C  0.88795640  0.63396438  0.74678671     0.06180
C2479       C  0.89605188  0.62568188  0.71537241    -0.03780
C2480       C  0.87262886  0.62029596  0.69271260    -0.08230
C2481       C  0.84095662  0.62411719  0.70015768     0.05300
C2482       C  0.83318919  0.63606895  0.73030666    -0.03260
Br2483     Br  0.79134683  0.64875595  0.74099840    -0.02950
H2484       H  0.84956426  0.64796369  0.77661214     0.09210
H2485       H  0.87916922  0.61163279  0.66963860     0.07230
Br2486     Br  0.93826155  0.61961415  0.70161085    -0.03380
C2487       C  0.88843562  0.53783828  0.89805999    -0.10010
C2488       C  0.88311524  0.55872655  0.87294072     0.06180
C2489       C  0.85558969  0.55511410  0.85494188    -0.03780
C2490       C  0.83443543  0.53078228  0.86184069    -0.08230
C2491       C  0.84046474  0.50913477  0.88611544     0.05300
C2492       C  0.86737026  0.51337188  0.90480328    -0.03260
Br2493     Br  0.87595991  0.48658425  0.94002826    -0.02950
H2494       H  0.90964661  0.53993535  0.91188206     0.09210
H2495       H  0.81387534  0.52786366  0.84718624     0.07230
Br2496     Br  0.84738088  0.58063453  0.81870764    -0.03380
loop_ 
_geom_bond_atom_site_label_1 
_geom_bond_atom_site_label_2 
_geom_bond_distance 
_geom_bond_site_symmetry_2 
_ccdc_geom_bond_type 
O1          Cr19   2.029       .  S
O1            C9   1.267       .  A
O2          Cr19   1.970       .  S
O2            C3   1.257       .  A
C3            O4   1.271       .  A
C3         C2438   1.470       .  S
O4          Cr20   1.989       .  S
O5          Cr20   2.085   1_455  S
O5            C6   1.270       .  A
C6            O7   1.243       .  A
C6         C2458   1.509       .  S
O7          Cr21   1.943   1_455  S
O8          Cr21   2.001       .  S
O8            C9   1.268       .  A
C9         C2448   1.522   1_655  S
O10         Cr19   2.044       .  S
O10          C18   1.272       .  A
O11         Cr19   2.007       .  S
O11          C12   1.276       .  A
C12          O13   1.272       .  A
C12        C2478   1.500       .  S
O13         Cr20   2.023       .  S
O14         Cr20   1.907       .  S
O14          C15   1.245       .  A
C15          O16   1.271       .  A
C15        C2468   1.423       .  S
O16         Cr21   2.005       .  S
O17         Cr21   1.960       .  S
O17          C18   1.252       .  A
C18        C2488   1.488       .  S
Cr19         O22   1.754       .  S
Cr20         O22   1.778       .  S
Cr21         O22   1.755       .  S
O23         Cr41   2.024       .  S
O23          C31   1.261       .  A
O24         Cr41   1.988       .  S
O24          C25   1.265       .  A
C25          O26   1.276       .  A
C25        C2391   1.486       .  S
O26         Cr42   1.996       .  S
O27         Cr42   2.074   1_455  S
O27          C28   1.272       .  A
C28          O29   1.249       .  A
C28        C2408   1.518       .  S
O29         Cr43   1.959   1_455  S
O30         Cr43   1.977       .  S
O30          C31   1.258       .  A
C31        C2398   1.504       .  S
O32         Cr41   2.069       .  S
O32          C40   1.279       .  A
O33         Cr41   2.008       .  S
O33          C34   1.274       .  A
C34          O35   1.267       .  A
C34        C2428   1.498       .  S
O35         Cr42   2.014       .  S
O36         Cr42   1.948       .  S
O36          C37   1.257       .  A
C37          O38   1.260       .  A
C37        C2471   1.440       .  S
O38         Cr43   1.969       .  S
O39         Cr43   1.935       .  S
O39          C40   1.247       .  A
C40        C2418   1.495       .  S
Cr41         O44   1.761       .  S
Cr42         O44   1.775       .  S
Cr43         O44   1.764       .  S
O45         Cr63   1.984       .  S
O45          C53   1.257       .  A
O46         Cr63   1.958       .  S
O46          C47   1.251       .  A
C47          O48   1.265       .  A
C47        C2368   1.483       .  S
O48         Cr64   2.046       .  S
O49         Cr64   1.967       .  S
O49          C50   1.265       .  A
C50          O51   1.271       .  A
C50        C2348   1.468       .  S
O51         Cr65   1.999       .  S
O52         Cr65   2.034       .  S
O52          C53   1.267       .  A
C53        C2358   1.511       .  S
O54         Cr63   1.943       .  S
O54          C62   1.251       .  A
O55         Cr63   1.979       .  S
O55          C56   1.263       .  A
C56          O57   1.255       .  A
C56        C2378   1.441       .  S
O57         Cr64   1.936       .  S
O58         Cr64   2.008       .  S
O58          C59   1.264       .  A
C59          O60   1.274       .  A
C59        C2421   1.497       .  S
O60         Cr65   2.023       .  S
O61         Cr65   2.055       .  S
O61          C62   1.276       .  A
C62        C2481   1.491       .  S
Cr63         O66   1.750       .  S
Cr64         O66   1.772       .  S
Cr65         O66   1.755       .  S
O67         Cr85   1.986       .  S
O67          C75   1.260       .  A
O68         Cr85   1.955       .  S
O68          C69   1.247       .  A
C69          O70   1.269       .  A
C69        C2338   1.504       .  S
O70         Cr86   2.065       .  S
O71         Cr86   1.956       .  S
O71          C72   1.262       .  A
C72          O73   1.271       .  A
C72        C2318   1.464       .  S
O73         Cr87   2.004       .  S
O74         Cr87   2.006       .  S
O74          C75   1.260       .  A
C75        C2328   1.499       .  S
O76         Cr85   1.936       .  S
O76          C84   1.250       .  A
O77         Cr85   2.008       .  S
O77          C78   1.267       .  A
C78          O79   1.251       .  A
C78        C2381   1.439       .  S
O79         Cr86   1.909       .  S
O80         Cr86   2.022       .  S
O80          C81   1.271       .  A
C81          O82   1.270       .  A
C81        C2491   1.489       .  S
O82         Cr87   2.001       .  S
O83         Cr87   2.062       .  S
O83          C84   1.278       .  A
C84        C2431   1.492       .  S
Cr85         O88   1.753       .  S
Cr86         O88   1.765       .  S
Cr87         O88   1.761       .  S
O89        Cr107   2.019       .  S
O89          C97   1.267       .  A
O90        Cr107   2.002       .  S
O90          C91   1.271       .  A
C91          O92   1.272   1_556  A
C91        C2258   1.478       .  S
O92        Cr108   1.976   1_554  S
O93        Cr108   2.059   1_554  S
O93          C94   1.265       .  A
C94          O95   1.246       .  A
C94        C2278   1.493       .  S
O95        Cr109   1.958   1_554  S
O96        Cr109   1.984       .  S
O96          C97   1.262       .  A
C97        C2268   1.496   1_556  S
O98        Cr107   2.057       .  S
O98         C106   1.273       .  A
O99        Cr107   2.020       .  S
O99         C100   1.270       .  A
C100        O101   1.263       .  A
C100       C2311   1.493       .  S
O101       Cr108   2.016       .  S
O102       Cr108   1.929       .  S
O102        C103   1.251       .  A
C103        O104   1.270       .  A
C103       C2288   1.442       .  S
O104       Cr109   1.987       .  S
O105       Cr109   1.930       .  S
O105        C106   1.248       .  A
C106       C2298   1.509       .  S
Cr107       O110   1.757       .  S
Cr108       O110   1.781       .  S
Cr109       O110   1.757       .  S
O111       Cr129   2.014       .  S
O111        C119   1.266       .  A
O112       Cr129   1.996       .  S
O112        C113   1.271       .  A
C113        O114   1.275   1_556  A
C113       C2211   1.471   1_556  S
O114       Cr130   1.979   1_554  S
O115       Cr130   2.081   1_554  S
O115        C116   1.262       .  A
C116        O117   1.235       .  A
C116       C2228   1.509       .  S
O117       Cr131   1.936   1_554  S
O118       Cr131   1.982       .  S
O118        C119   1.261       .  A
C119       C2218   1.491   1_556  S
O120       Cr129   2.045       .  S
O120        C128   1.273       .  A
O121       Cr129   2.012       .  S
O121        C122   1.270       .  A
C122        O123   1.265       .  A
C122       C2238   1.497       .  S
O123       Cr130   2.025       .  S
O124       Cr130   1.916       .  S
O124        C125   1.252       .  A
C125        O126   1.274       .  A
C125       C2291   1.445       .  S
O126       Cr131   2.009       .  S
O127       Cr131   1.934       .  S
O127        C128   1.249       .  A
C128       C2248   1.505       .  S
Cr129       O132   1.757       .  S
Cr130       O132   1.786       .  S
Cr131       O132   1.759       .  S
O133       Cr151   1.998       .  S
O133        C141   1.263       .  A
O134       Cr151   1.932       .  S
O134        C135   1.234       .  A
C135        O136   1.266       .  A
C135       C2188   1.513       .  S
O136       Cr152   2.083       .  S
O137       Cr152   1.992       .  S
O137        C138   1.272       .  A
C138        O139   1.267       .  A
C138       C2178   1.485       .  S
O139       Cr153   1.988       .  S
O140       Cr153   2.020       .  S
O140        C141   1.264       .  A
C141       C2371   1.506       .  S
O142       Cr151   1.961       .  S
O142        C150   1.253       .  A
O143       Cr151   1.987       .  S
O143        C144   1.261       .  A
C144        O145   1.255       .  A
C144       C2198   1.443       .  S
O145       Cr152   1.921       .  S
O146       Cr152   2.028       .  S
O146        C147   1.272       .  A
C147        O148   1.268       .  A
C147       C2301   1.504       .  S
O148       Cr153   1.989       .  S
O149       Cr153   2.051       .  S
O149        C150   1.273       .  A
C150       C2241   1.499       .  S
Cr151       O154   1.753       .  S
Cr152       O154   1.784       .  S
Cr153       O154   1.760       .  S
O155       Cr173   1.989       .  S
O155        C163   1.264       .  A
O156       Cr173   1.962       .  S
O156        C157   1.251       .  A
C157        O158   1.268       .  A
C157       C2168   1.492       .  S
O158       Cr174   2.059       .  S
O159       Cr174   1.984       .  S
O159        C160   1.271       .  A
C160        O161   1.266       .  A
C160       C2148   1.457       .  S
O161       Cr175   1.995       .  S
O162       Cr175   2.015       .  S
O162        C163   1.266       .  A
C163       C2161   1.492       .  S
O164       Cr173   1.948       .  S
O164        C172   1.247       .  A
O165       Cr173   1.974       .  S
O165        C166   1.265       .  A
C166        O167   1.253       .  A
C166       C2201   1.434       .  S
O167       Cr174   1.931       .  S
O168       Cr174   2.004       .  S
O168        C169   1.265       .  A
C169        O170   1.270       .  A
C169       C2251   1.499       .  S
O170       Cr175   2.010       .  S
O171       Cr175   2.052       .  S
O171        C172   1.272       .  A
C172       C2308   1.491       .  S
Cr173       O176   1.764       .  S
Cr174       O176   1.771       .  S
Cr175       O176   1.759       .  S
O177       Cr195   2.013       .  S
O177        C185   1.263       .  A
O178       Cr195   1.989       .  S
O178        C179   1.267       .  A
C179        O180   1.269   1_565  A
C179       C2088   1.480       .  S
O180       Cr196   1.986   1_545  S
O181       Cr196   2.078   1_545  S
O181        C182   1.267       .  A
C182        O183   1.238       .  A
C182       C2108   1.498       .  S
O183       Cr197   1.946   1_545  S
O184       Cr197   1.995       .  S
O184        C185   1.262       .  A
C185       C2101   1.492   1_565  S
O186       Cr195   2.055       .  S
O186        C194   1.276       .  A
O187       Cr195   2.004       .  S
O187        C188   1.275       .  A
C188        O189   1.274       .  A
C188       C2138   1.504       .  S
O189       Cr196   2.030       .  S
O190       Cr196   1.917       .  S
O190        C191   1.251       .  A
C191        O192   1.270       .  A
C191       C2118   1.440       .  S
O192       Cr197   2.016       .  S
O193       Cr197   1.941       .  S
O193        C194   1.251       .  A
C194       C2128   1.495       .  S
Cr195       O198   1.754       .  S
Cr196       O198   1.779       .  S
Cr197       O198   1.755       .  S
O199       Cr217   2.085       .  S
O199        C207   1.298       .  A
O200       Cr217   1.950       .  S
O200        C201   1.256       .  A
C201        O202   1.271   1_565  A
C201       C2038   1.466   1_565  S
O202       Cr218   2.016   1_545  S
O203       Cr218   2.049   1_545  S
O203        C204   1.266       .  A
C204        O205   1.234       .  A
C204       C2048   1.488       .  S
O205       Cr219   1.948   1_545  S
O206       Cr219   1.962   1_545  S
O206        C207   1.270   1_545  A
C207       C2058   1.514   1_565  S
O208       Cr217   2.025       .  S
O208        C216   1.248       .  A
O209       Cr217   1.998       .  S
O209        C210   1.269       .  A
C210        O211   1.263       .  A
C210       C2068   1.505       .  S
O211       Cr218   2.001       .  S
O212       Cr218   2.001       .  S
O212        C213   1.284       .  A
C213        O214   1.276       .  A
C213       C2121   1.437       .  S
O214       Cr219   1.959       .  S
O215       Cr219   1.976       .  S
O215        C216   1.242       .  A
C216       C2078   1.516       .  S
Cr217       O220   1.755       .  S
Cr218       O220   1.762       .  S
Cr219       O220   1.766       .  S
O221       Cr239   1.997       .  S
O221        C229   1.264       .  A
O222       Cr239   1.930       .  S
O222        C223   1.231       .  A
C223        O224   1.263       .  A
C223       C2018   1.511       .  S
O224       Cr240   2.083       .  S
O225       Cr240   1.983       .  S
O225        C226   1.271       .  A
C226        O227   1.269       .  A
C226       C1998   1.475       .  S
O227       Cr241   1.992       .  S
O228       Cr241   2.031       .  S
O228        C229   1.266       .  A
C229       C2028   1.511       .  S
O230       Cr239   1.944       .  S
O230        C238   1.250       .  A
O231       Cr239   2.012       .  S
O231        C232   1.270       .  A
C232        O233   1.255       .  A
C232       C2008   1.452       .  S
O233       Cr240   1.918       .  S
O234       Cr240   2.018       .  S
O234        C235   1.269       .  A
C235        O236   1.275       .  A
C235       C2081   1.502       .  S
O236       Cr241   2.025       .  S
O237       Cr241   2.056       .  S
O237        C238   1.277       .  A
C238       C2141   1.504       .  S
Cr239       O242   1.756       .  S
Cr240       O242   1.780       .  S
Cr241       O242   1.764       .  S
O243       Cr261   1.991       .  S
O243        C251   1.265       .  A
O244       Cr261   1.954       .  S
O244        C245   1.250       .  A
C245        O246   1.271       .  A
C245       C2361   1.511       .  S
O246       Cr262   2.068       .  S
O247       Cr262   1.969       .  S
O247        C248   1.264       .  A
C248        O249   1.269       .  A
C248       C1991   1.472       .  S
O249       Cr263   2.002       .  S
O250       Cr263   2.016       .  S
O250        C251   1.261       .  A
C251       C2191   1.508       .  S
O252       Cr261   1.943       .  S
O252        C260   1.251       .  A
O253       Cr261   2.002       .  S
O253        C254   1.266       .  A
C254        O255   1.252       .  A
C254       C2011   1.443       .  S
O255       Cr262   1.924       .  S
O256       Cr262   2.021       .  S
O256        C257   1.272       .  A
C257        O258   1.271       .  A
C257       C2131   1.499       .  S
O258       Cr263   1.999       .  S
O259       Cr263   2.061       .  S
O259        C260   1.277       .  A
C260       C2071   1.492       .  S
Cr261       O264   1.751       .  S
Cr262       O264   1.764       .  S
Cr263       O264   1.761       .  S
O265       Cr283   1.989       .  S
O265        C273   1.262       .  A
O266       Cr283   1.944       .  S
O266        C267   1.239       .  A
C267        O268   1.274       .  A
C267       C1938   1.500       .  S
O268       Cr284   2.079       .  S
O269       Cr284   1.975       .  S
O269        C270   1.269       .  A
C270        O271   1.267       .  A
C270       C1928   1.477       .  S
O271       Cr285   1.998       .  S
O272       Cr285   2.020       .  S
O272        C273   1.262       .  A
C273       C1948   1.511       .  S
O274       Cr283   1.929       .  S
O274        C282   1.247       .  A
O275       Cr283   2.008       .  S
O275        C276   1.265       .  A
C276        O277   1.250       .  A
C276       C1958   1.448       .  S
O277       Cr284   1.918       .  S
O278       Cr284   2.023       .  S
O278        C279   1.273       .  A
C279        O280   1.274       .  A
C279       C1971   1.495   1_545  S
O280       Cr285   2.005       .  S
O281       Cr285   2.071       .  S
O281        C282   1.279       .  A
C282       C1981   1.496       .  S
Cr283       O286   1.753       .  S
Cr284       O286   1.766       .  S
Cr285       O286   1.758       .  S
O287       Cr305   2.017       .  S
O287        C295   1.266       .  A
O288       Cr305   1.991       .  S
O288        C289   1.268       .  A
C289        O290   1.278   1_455  A
C289       C2388   1.483   1_455  S
O290       Cr306   1.996   1_655  S
O291       Cr306   2.052   1_655  S
O291        C292   1.265       .  A
C292        O293   1.253       .  A
C292       C2061   1.500       .  S
O293       Cr307   1.970       .  S
O294       Cr307   1.978   1_455  S
O294        C295   1.259       .  A
C295       C1898   1.489   1_455  S
O296       Cr305   2.053       .  S
O296        C304   1.274       .  A
O297       Cr305   2.020       .  S
O297        C298   1.272       .  A
C298        O299   1.260       .  A
C298       C1978   1.498       .  S
O299       Cr306   1.999       .  S
O300       Cr306   1.951       .  S
O300        C301   1.258       .  A
C301        O302   1.264   1_455  A
C301       C1908   1.446       .  S
O302       Cr307   1.963       .  S
O303       Cr307   1.945   1_455  S
O303        C304   1.248       .  A
C304       C1918   1.503       .  S
Cr305       O308   1.762       .  S
Cr306       O308   1.779       .  S
Cr307       O308   1.769   1_655  S
O309       Cr327   1.995       .  S
O309        C317   1.263       .  A
O310       Cr327   1.946       .  S
O310        C311   1.237       .  A
C311        O312   1.271       .  A
C311       C2158   1.502       .  S
O312       Cr328   2.083       .  S
O313       Cr328   1.977       .  S
O313        C314   1.269       .  A
C314        O315   1.263       .  A
C314       C1868   1.476       .  S
O315       Cr329   1.988       .  S
O316       Cr329   2.019       .  S
O316        C317   1.263       .  A
C317       C1888   1.503       .  S
O318       Cr327   1.936       .  S
O318        C326   1.248       .  A
O319       Cr327   2.008       .  S
O319        C320   1.265       .  A
C320        O321   1.251       .  A
C320       C1961   1.447       .  S
O321       Cr328   1.923       .  S
O322       Cr328   2.027       .  S
O322        C323   1.273       .  A
C323        O324   1.276       .  A
C323       C1921   1.504   1_565  S
O324       Cr329   2.008       .  S
O325       Cr329   2.054       .  S
O325        C326   1.276       .  A
C326       C1878   1.483       .  S
Cr327       O330   1.749       .  S
Cr328       O330   1.772       .  S
Cr329       O330   1.758       .  S
O331       Cr349   2.020       .  S
O331        C339   1.265       .  A
O332       Cr349   1.998       .  S
O332        C333   1.268       .  A
C333        O334   1.266   1_455  A
C333       C2441   1.451   1_455  S
O334       Cr350   1.962   1_655  S
O335       Cr350   2.039   1_655  S
O335        C336   1.261       .  A
C336        O337   1.248       .  A
C336       C1848   1.482       .  S
O337       Cr351   1.961   1_655  S
O338       Cr351   1.991       .  S
O338        C339   1.265       .  A
C339       C1861   1.512   1_455  S
O340       Cr349   2.055       .  S
O340        C348   1.275       .  A
O341       Cr349   2.014       .  S
O341        C342   1.274       .  A
C342        O343   1.261       .  A
C342       C1881   1.488       .  S
O343       Cr350   1.998       .  S
O344       Cr350   1.910       .  S
O344        C345   1.247       .  A
C345        O346   1.267       .  A
C345       C1911   1.417       .  S
O346       Cr351   1.995       .  S
O347       Cr351   1.940       .  S
O347        C348   1.248       .  A
C348       C1968   1.492       .  S
Cr349       O352   1.763       .  S
Cr350       O352   1.769       .  S
Cr351       O352   1.763       .  S
O353       Cr371   2.001       .  S
O353        C361   1.259       .  A
O354       Cr371   2.003       .  S
O354        C355   1.271       .  A
C355        O356   1.264       .  A
C355       C1798   1.473       .  S
O356       Cr372   1.963       .  S
O357       Cr372   2.074       .  S
O357        C358   1.268       .  A
C358        O359   1.241       .  A
C358       C1838   1.512       .  S
O359       Cr373   1.951       .  S
O360       Cr373   1.993       .  S
O360        C361   1.263       .  A
C361       C2111   1.493       .  S
O362       Cr371   2.059       .  S
O362        C370   1.277       .  A
O363       Cr371   1.992       .  S
O363        C364   1.269       .  A
C364        O365   1.270       .  A
C364       C1818   1.486       .  S
O365       Cr372   2.029       .  S
O366       Cr372   1.916       .  S
O366        C367   1.249       .  A
C367        O368   1.271       .  A
C367       C1808   1.449       .  S
O368       Cr373   2.009       .  S
O369       Cr373   1.940       .  S
O369        C370   1.251       .  A
C370       C1828   1.501       .  S
Cr371       O374   1.757       .  S
Cr372       O374   1.772       .  S
Cr373       O374   1.752       .  S
O375       Cr393   1.987       .  S
O375        C383   1.262       .  A
O376       Cr393   1.962       .  S
O376        C377   1.251       .  A
C377        O378   1.270       .  A
C377       C1788   1.496       .  S
O378       Cr394   2.067       .  S
O379       Cr394   1.984       .  S
O379        C380   1.272       .  A
C380        O381   1.270       .  A
C380       C2181   1.465       .  S
O381       Cr395   1.997       .  S
O382       Cr395   2.012       .  S
O382        C383   1.267       .  A
C383       C2341   1.504       .  S
O384       Cr393   1.931       .  S
O384        C392   1.246       .  A
O385       Cr393   1.974       .  S
O385        C386   1.270       .  A
C386        O387   1.250       .  A
C386       C1768   1.448       .  S
O387       Cr394   1.941       .  S
O388       Cr394   2.010       .  S
O388        C389   1.263       .  A
C389        O390   1.268       .  A
C389       C1778   1.483       .  S
O390       Cr395   2.006       .  S
O391       Cr395   2.048       .  S
O391        C392   1.270       .  A
C392       C1821   1.489       .  S
Cr393       O396   1.755       .  S
Cr394       O396   1.778       .  S
Cr395       O396   1.762       .  S
O397       Cr415   1.992       .  S
O397        C405   1.262       .  A
O398       Cr415   1.939       .  S
O398        C399   1.239       .  A
C399        O400   1.272       .  A
C399       C1758   1.507       .  S
O400       Cr416   2.089       .  S
O401       Cr416   1.988       .  S
O401        C402   1.274       .  A
C402        O403   1.265       .  A
C402       C2151   1.468       .  S
O403       Cr417   1.990       .  S
O404       Cr417   2.016       .  S
O404        C405   1.262       .  A
C405       C1941   1.501       .  S
O406       Cr415   1.947       .  S
O406        C414   1.249       .  A
O407       Cr415   1.999       .  S
O407        C408   1.268       .  A
C408        O409   1.248       .  A
C408       C1771   1.445       .  S
O409       Cr416   1.916       .  S
O410       Cr416   2.020       .  S
O410        C411   1.272       .  A
C411        O412   1.274       .  A
C411       C1831   1.498       .  S
O412       Cr417   2.004       .  S
O413       Cr417   2.059       .  S
O413        C414   1.276       .  A
C414       C1748   1.502       .  S
Cr415       O418   1.755       .  S
Cr416       O418   1.780       .  S
Cr417       O418   1.751       .  S
O419       Cr437   2.023       .  S
O419        C427   1.261       .  A
O420       Cr437   1.983       .  S
O420        C421   1.260       .  A
C421        O422   1.269       .  A
C421       C1718   1.478       .  S
O422       Cr438   1.990       .  S
O423       Cr438   2.087       .  S
O423        C424   1.270       .  A
C424        O425   1.241       .  A
C424       C1728   1.514       .  S
O425       Cr439   1.951       .  S
O426       Cr439   1.986       .  S
O426        C427   1.261       .  A
C427       C1738   1.508       .  S
O428       Cr437   2.049       .  S
O428        C436   1.274       .  A
O429       Cr437   1.994       .  S
O429        C430   1.274       .  A
C430        O431   1.277       .  A
C430       C1751   1.505       .  S
O431       Cr438   2.037       .  S
O432       Cr438   1.927       .  S
O432        C433   1.253       .  A
C433        O434   1.266       .  A
C433       C1811   1.434       .  S
O434       Cr439   1.996       .  S
O435       Cr439   1.949       .  S
O435        C436   1.253       .  A
C436       C1781   1.485       .  S
Cr437       O440   1.760       .  S
Cr438       O440   1.776       .  S
Cr439       O440   1.750       .  S
O441       Cr459   1.990       .  S
O441        C449   1.262       .  A
O442       Cr459   1.953       .  S
O442        C443   1.243       .  A
C443        O444   1.269       .  A
C443       C1668   1.504       .  S
O444       Cr460   2.064       .  S
O445       Cr460   1.976       .  S
O445        C446   1.264       .  A
C446        O447   1.265       .  A
C446       C1658   1.478       .  S
O447       Cr461   1.989       .  S
O448       Cr461   2.024       .  S
O448        C449   1.261       .  A
C449       C1678   1.508       .  S
O450       Cr459   1.941       .  S
O450        C458   1.252       .  A
O451       Cr459   2.006       .  S
O451        C452   1.265       .  A
C452        O453   1.254       .  A
C452       C1688   1.445       .  S
O453       Cr460   1.924       .  S
O454       Cr460   2.028       .  S
O454        C455   1.273       .  A
C455        O456   1.274       .  A
C455       C1708   1.498   1_554  S
O456       Cr461   2.003       .  S
O457       Cr461   2.059       .  S
O457        C458   1.277       .  A
C458       C1701   1.489       .  S
Cr459       O462   1.757       .  S
Cr460       O462   1.768       .  S
Cr461       O462   1.760       .  S
O463       Cr481   2.008       .  S
O463        C471   1.263       .  A
O464       Cr481   1.997       .  S
O464        C465   1.269       .  A
C465        O466   1.269       .  A
C465       C1618   1.466       .  S
O466       Cr482   1.975       .  S
O467       Cr482   2.069       .  S
O467        C468   1.269       .  A
C468        O469   1.247       .  A
C468       C2271   1.502       .  S
O469       Cr483   1.954       .  S
O470       Cr483   1.985       .  S
O470        C471   1.262       .  A
C471       C1631   1.499       .  S
O472       Cr481   2.054       .  S
O472        C480   1.274       .  A
O473       Cr481   1.997       .  S
O473        C474   1.269       .  A
C474        O475   1.270       .  A
C474       C1698   1.491       .  S
O475       Cr482   2.025       .  S
O476       Cr482   1.920       .  S
O476        C477   1.253       .  A
C477        O478   1.265       .  A
C477       C1638   1.449       .  S
O478       Cr483   1.996       .  S
O479       Cr483   1.942       .  S
O479        C480   1.250       .  A
C480       C1648   1.495       .  S
Cr481       O484   1.759       .  S
Cr482       O484   1.776       .  S
Cr483       O484   1.753       .  S
O485       Cr503   2.024       .  S
O485        C493   1.270       .  A
O486       Cr503   1.999       .  S
O486        C487   1.271       .  A
C487        O488   1.273       .  A
C487       C1588   1.464       .  S
O488       Cr504   1.985       .  S
O489       Cr504   2.086       .  S
O489        C490   1.266       .  A
C490        O491   1.234       .  A
C490       C1611   1.506       .  S
O491       Cr505   1.934       .  S
O492       Cr505   1.996       .  S
O492        C493   1.264       .  A
C493       C2461   1.514       .  S
O494       Cr503   2.056       .  S
O494        C502   1.274       .  A
O495       Cr503   2.016       .  S
O495        C496   1.273       .  A
C496        O497   1.266       .  A
C496       C1601   1.494       .  S
O497       Cr504   2.018       .  S
O498       Cr504   1.922       .  S
O498        C499   1.251       .  A
C499        O500   1.270       .  A
C499       C1641   1.441       .  S
O500       Cr505   2.012       .  S
O501       Cr505   1.932       .  S
O501        C502   1.245       .  A
C502       C1711   1.491       .  S
Cr503       O506   1.755       .  S
Cr504       O506   1.785       .  S
Cr505       O506   1.749       .  S
O507       Cr525   1.999       .  S
O507        C515   1.266       .  A
O508       Cr525   1.946       .  S
O508        C509   1.239       .  A
C509        O510   1.270       .  A
C509       C1951   1.512       .  S
O510       Cr526   2.079       .  S
O511       Cr526   1.984       .  S
O511        C512   1.270       .  A
C512        O513   1.268       .  A
C512       C1578   1.474       .  S
O513       Cr527   2.001       .  S
O514       Cr527   2.016       .  S
O514        C515   1.261       .  A
C515       C1761   1.514       .  S
O516       Cr525   1.941       .  S
O516        C524   1.249       .  A
O517       Cr525   2.007       .  S
O517        C518   1.267       .  A
C518        O519   1.255       .  A
C518       C1691   1.457       .  S
O519       Cr526   1.929       .  S
O520       Cr526   2.027       .  S
O520        C521   1.273       .  A
C521        O522   1.270       .  A
C521       C1651   1.496   1_556  S
O522       Cr527   1.995       .  S
O523       Cr527   2.062       .  S
O523        C524   1.277       .  A
C524       C1598   1.495       .  S
Cr525       O528   1.756       .  S
Cr526       O528   1.773       .  S
Cr527       O528   1.766       .  S
O529       Cr547   1.977       .  S
O529        C537   1.258       .  A
O530       Cr547   1.954       .  S
O530        C531   1.244       .  A
C531        O532   1.271       .  A
C531       C1538   1.507       .  S
O532       Cr548   2.080       .  S
O533       Cr548   1.975       .  S
O533        C534   1.268       .  A
C534        O535   1.265       .  A
C534       C1931   1.479       .  S
O535       Cr549   1.996       .  S
O536       Cr549   2.020       .  S
O536        C537   1.261       .  A
C537       C1671   1.503       .  S
O538       Cr547   1.943       .  S
O538        C546   1.252       .  A
O539       Cr547   1.997       .  S
O539        C540   1.263       .  A
C540        O541   1.252       .  A
C540       C1551   1.449       .  S
O541       Cr548   1.919       .  S
O542       Cr548   2.030       .  S
O542        C543   1.272       .  A
C543        O544   1.273       .  A
C543       C1561   1.506   1_545  S
O544       Cr549   1.992       .  S
O545       Cr549   2.060       .  S
O545        C546   1.279       .  A
C546       C1568   1.493       .  S
Cr547       O550   1.752       .  S
Cr548       O550   1.771       .  S
Cr549       O550   1.754       .  S
O551       Cr569   2.023       .  S
O551        C559   1.261       .  A
O552       Cr569   1.991       .  S
O552        C553   1.265       .  A
C553        O554   1.268       .  A
C553       C1508   1.471       .  S
O554       Cr570   1.976       .  S
O555       Cr570   2.069       .  S
O555        C556   1.273       .  A
C556        O557   1.251       .  A
C556       C2098   1.499       .  S
O557       Cr571   1.959       .  S
O558       Cr571   1.981       .  S
O558        C559   1.261       .  A
C559       C1841   1.511       .  S
O560       Cr569   2.061       .  S
O560        C568   1.276       .  A
O561       Cr569   2.003       .  S
O561        C562   1.272       .  A
C562        O563   1.270       .  A
C562       C1571   1.499       .  S
O563       Cr570   2.022       .  S
O564       Cr570   1.940       .  S
O564        C565   1.253       .  A
C565        O566   1.261       .  A
C565       C1518   1.432       .  S
O566       Cr571   1.979       .  S
O567       Cr571   1.923       .  S
O567        C568   1.248       .  A
C568       C1528   1.495       .  S
Cr569       O572   1.766       .  S
Cr570       O572   1.768       .  S
Cr571       O572   1.762       .  S
O573       Cr591   1.994       .  S
O573        C581   1.266       .  A
O574       Cr591   1.952       .  S
O574        C575   1.246       .  A
C575        O576   1.269       .  A
C575       C1488   1.492       .  S
O576       Cr592   2.062       .  S
O577       Cr592   1.961       .  S
O577        C578   1.265       .  A
C578        O579   1.269       .  A
C578       C1871   1.467       .  S
O579       Cr593   2.004       .  S
O580       Cr593   2.010       .  S
O580        C581   1.263       .  A
C581       C1478   1.506       .  S
O582       Cr591   1.938       .  S
O582        C590   1.249       .  A
O583       Cr591   1.999       .  S
O583        C584   1.265       .  A
C584        O585   1.250       .  A
C584       C1548   1.431       .  S
O585       Cr592   1.918       .  S
O586       Cr592   2.020       .  S
O586        C587   1.269       .  A
C587        O588   1.271       .  A
C587       C1531   1.493   1_565  S
O588       Cr593   1.997       .  S
O589       Cr593   2.066       .  S
O589        C590   1.276       .  A
C590       C1501   1.503       .  S
Cr591       O594   1.756       .  S
Cr592       O594   1.773       .  S
Cr593       O594   1.760       .  S
O595       Cr613   2.014       .  S
O595        C603   1.262       .  A
O596       Cr613   2.001       .  S
O596        C597   1.267       .  A
C597        O598   1.264       .  A
C597       C1461   1.458       .  S
O598       Cr614   1.961       .  S
O599       Cr614   2.068       .  S
O599        C600   1.270       .  A
C600        O601   1.245       .  A
C600       C1468   1.501       .  S
O601       Cr615   1.950       .  S
O602       Cr615   1.996       .  S
O602        C603   1.263       .  A
C603       C2231   1.508       .  S
O604       Cr613   2.063       .  S
O604        C612   1.278       .  A
O605       Cr613   1.995       .  S
O605        C606   1.271       .  A
C606        O607   1.274       .  A
C606       C1498   1.501       .  S
O607       Cr614   2.033       .  S
O608       Cr614   1.917       .  S
O608        C609   1.250       .  A
C609        O610   1.267       .  A
C609       C1521   1.421       .  S
O610       Cr615   2.004       .  S
O611       Cr615   1.941       .  S
O611        C612   1.247       .  A
C612       C1558   1.507       .  S
Cr613       O616   1.760       .  S
Cr614       O616   1.772       .  S
Cr615       O616   1.753       .  S
O617       Cr635   1.989       .  S
O617        C625   1.262       .  A
O618       Cr635   1.951       .  S
O618        C619   1.242       .  A
C619        O620   1.268       .  A
C619       C1681   1.509       .  S
O620       Cr636   2.073       .  S
O621       Cr636   1.988       .  S
O621        C622   1.270       .  A
C622        O623   1.264       .  A
C622       C1421   1.466       .  S
O623       Cr637   1.980       .  S
O624       Cr637   2.010       .  S
O624        C625   1.263       .  A
C625       C1541   1.502       .  S
O626       Cr635   1.942       .  S
O626        C634   1.249       .  A
O627       Cr635   2.001       .  S
O627        C628   1.268       .  A
C628        O629   1.251       .  A
C628       C1428   1.437       .  S
O629       Cr636   1.910       .  S
O630       Cr636   2.023       .  S
O630        C631   1.273       .  A
C631        O632   1.273       .  A
C631       C1438   1.493   1_455  S
O632       Cr637   2.003       .  S
O633       Cr637   2.050       .  S
O633        C634   1.273       .  A
C634       C1451   1.490       .  S
Cr635       O638   1.754       .  S
Cr636       O638   1.775       .  S
Cr637       O638   1.758       .  S
O639       Cr657   2.017       .  S
O639        C647   1.262       .  A
O640       Cr657   1.998       .  S
O640        C641   1.268       .  A
C641        O642   1.268       .  A
C641       C1721   1.465       .  S
O642       Cr658   1.975       .  S
O643       Cr658   2.072       .  S
O643        C644   1.269       .  A
C644        O645   1.243       .  A
C644       C2401   1.508       .  S
O645       Cr659   1.955       .  S
O646       Cr659   1.990       .  S
O646        C647   1.260       .  A
C647       C1388   1.504       .  S
O648       Cr657   2.066       .  S
O648        C656   1.278       .  A
O649       Cr657   1.999       .  S
O649        C650   1.271       .  A
C650        O651   1.271       .  A
C650       C1448   1.492       .  S
O651       Cr658   2.020       .  S
O652       Cr658   1.924       .  S
O652        C653   1.253       .  A
C653        O654   1.265       .  A
C653       C1398   1.444       .  S
O654       Cr659   1.998       .  S
O655       Cr659   1.938       .  S
O655        C656   1.249       .  A
C656       C1408   1.498       .  S
Cr657       O660   1.760       .  S
Cr658       O660   1.772       .  S
Cr659       O660   1.754       .  S
O661       Cr679   1.985       .  S
O661        C669   1.262       .  A
O662       Cr679   1.943       .  S
O662        C663   1.238       .  A
C663        O664   1.265       .  A
C663       C1368   1.505       .  S
O664       Cr680   2.080       .  S
O665       Cr680   1.978       .  S
O665        C666   1.273       .  A
C666        O667   1.268       .  A
C666       C1351   1.468       .  S
O667       Cr681   1.989       .  S
O668       Cr681   2.019       .  S
O668        C669   1.267       .  A
C669       C1358   1.498       .  S
O670       Cr679   1.938       .  S
O670        C678   1.248       .  A
O671       Cr679   2.000       .  S
O671        C672   1.267       .  A
C672        O673   1.252       .  A
C672       C1431   1.444       .  S
O673       Cr680   1.913       .  S
O674       Cr680   2.019       .  S
O674        C675   1.266       .  A
C675        O676   1.273       .  A
C675       C1411   1.498       .  S
O676       Cr681   2.017       .  S
O677       Cr681   2.042       .  S
O677        C678   1.272       .  A
C678       C1378   1.489       .  S
Cr679       O682   1.757       .  S
Cr680       O682   1.783       .  S
Cr681       O682   1.756       .  S
O683       Cr701   2.002       .  S
O683        C691   1.258       .  A
O684       Cr701   1.997       .  S
O684        C685   1.270       .  A
C685        O686   1.265       .  A
C685       C1801   1.477       .  S
O686       Cr702   1.970       .  S
O687       Cr702   2.061       .  S
O687        C688   1.267       .  A
C688        O689   1.248       .  A
C688       C1901   1.496       .  S
O689       Cr703   1.957       .  S
O690       Cr703   1.986       .  S
O690        C691   1.264       .  A
C691       C2051   1.501       .  S
O692       Cr701   2.058       .  S
O692        C700   1.277       .  A
O693       Cr701   1.996       .  S
O693        C694   1.271       .  A
C694        O695   1.269       .  A
C694       C1381   1.492       .  S
O695       Cr702   2.020       .  S
O696       Cr702   1.924       .  S
O696        C697   1.255       .  A
C697        O698   1.266       .  A
C697       C1401   1.443       .  S
O698       Cr703   1.997       .  S
O699       Cr703   1.941       .  S
O699        C700   1.250       .  A
C700       C1441   1.493       .  S
Cr701       O704   1.762       .  S
Cr702       O704   1.769       .  S
Cr703       O704   1.757       .  S
O705       Cr723   1.988       .  S
O705        C713   1.261       .  A
O706       Cr723   1.950       .  S
O706        C707   1.246       .  A
C707        O708   1.271       .  A
C707       C1311   1.511       .  S
O708       Cr724   2.074       .  S
O709       Cr724   1.973       .  S
O709        C710   1.266       .  A
C710        O711   1.267       .  A
C710       C1418   1.458       .  S
O711       Cr725   2.001       .  S
O712       Cr725   2.011       .  S
O712        C713   1.264       .  A
C713       C1491   1.489       .  S
O714       Cr723   1.943       .  S
O714        C722   1.252       .  A
O715       Cr723   1.990       .  S
O715        C716   1.266       .  A
C716        O717   1.248       .  A
C716       C1318   1.436       .  S
O717       Cr724   1.913       .  S
O718       Cr724   2.035       .  S
O718        C719   1.273       .  A
C719        O720   1.270       .  A
C719       C1331   1.490   1_455  S
O720       Cr725   1.997       .  S
O721       Cr725   2.050       .  S
O721        C722   1.274       .  A
C722       C1338   1.492       .  S
Cr723       O726   1.756       .  S
Cr724       O726   1.769       .  S
Cr725       O726   1.756       .  S
O727       Cr745   1.999       .  S
O727        C735   1.258       .  A
O728       Cr745   2.006       .  S
O728        C729   1.269       .  A
C729        O730   1.269       .  A
C729       C2261   1.479       .  S
O730       Cr746   1.969       .  S
O731       Cr746   2.091   1_556  S
O731        C732   1.274       .  A
C732        O733   1.240       .  A
C732       C2451   1.518       .  S
O733       Cr747   1.947   1_556  S
O734       Cr747   2.007       .  S
O734        C735   1.268       .  A
C735       C1608   1.502       .  S
O736       Cr745   2.067       .  S
O736        C744   1.278       .  A
O737       Cr745   1.986       .  S
O737        C738   1.268       .  A
C738        O739   1.273       .  A
C738       C1341   1.493       .  S
O739       Cr746   2.032       .  S
O740       Cr746   1.914       .  S
O740        C741   1.247       .  A
C741        O742   1.273       .  A
C741       C1291   1.447       .  S
O742       Cr747   2.029       .  S
O743       Cr747   1.931       .  S
O743        C744   1.248       .  A
C744       C1298   1.505       .  S
Cr745       O748   1.759       .  S
Cr746       O748   1.768       .  S
Cr747       O748   1.753       .  S
O749       Cr767   1.977       .  S
O749        C757   1.257       .  A
O750       Cr767   1.961       .  S
O750        C751   1.252       .  A
C751        O752   1.271       .  A
C751       C2031   1.496       .  S
O752       Cr768   2.064       .  S
O753       Cr768   1.980       .  S
O753        C754   1.271       .  A
C754        O755   1.263       .  A
C754       C1348   1.475       .  S
O755       Cr769   1.984       .  S
O756       Cr769   2.026       .  S
O756        C757   1.265       .  A
C757       C1278   1.507       .  S
O758       Cr767   1.944       .  S
O758        C766   1.251       .  A
O759       Cr767   1.965       .  S
O759        C760   1.262       .  A
C760        O761   1.249       .  A
C760       C1321   1.432       .  S
O761       Cr768   1.931       .  S
O762       Cr768   2.010       .  S
O762        C763   1.268       .  A
C763        O764   1.275       .  A
C763       C1301   1.501       .  S
O764       Cr769   2.015       .  S
O765       Cr769   2.059       .  S
O765        C766   1.274       .  A
C766       C1268   1.503       .  S
Cr767       O770   1.754       .  S
Cr768       O770   1.770       .  S
Cr769       O770   1.759       .  S
O771       Cr789   1.999       .  S
O771        C779   1.260       .  A
O772       Cr789   1.987       .  S
O772        C773   1.262       .  A
C773        O774   1.271       .  A
C773       C2208   1.479       .  S
O774       Cr790   1.984       .  S
O775       Cr790   2.089   1_556  S
O775        C776   1.272       .  A
C776        O777   1.237       .  A
C776       C1858   1.513       .  S
O777       Cr791   1.934   1_556  S
O778       Cr791   2.012       .  S
O778        C779   1.270       .  A
C779       C1258   1.498   1_554  S
O780       Cr789   2.043       .  S
O780        C788   1.272       .  A
O781       Cr789   1.988       .  S
O781        C782   1.268       .  A
C782        O783   1.275       .  A
C782       C1271   1.504       .  S
O783       Cr790   2.037       .  S
O784       Cr790   1.918       .  S
O784        C785   1.247       .  A
C785        O786   1.274       .  A
C785       C1288   1.456       .  S
O786       Cr791   2.023       .  S
O787       Cr791   1.955       .  S
O787        C788   1.252       .  A
C788       C1328   1.487       .  S
Cr789       O792   1.759       .  S
Cr790       O792   1.771       .  S
Cr791       O792   1.755       .  S
O793       Cr811   2.013       .  S
O793        C801   1.262       .  A
O794       Cr811   1.989       .  S
O794        C795   1.261       .  A
C795        O796   1.269       .  A
C795       C1621   1.478       .  S
O796       Cr812   1.983       .  S
O797       Cr812   2.064       .  S
O797        C798   1.269       .  A
C798        O799   1.246       .  A
C798       C1741   1.502       .  S
O799       Cr813   1.950       .  S
O800       Cr813   1.988       .  S
O800        C801   1.261       .  A
C801       C1218   1.494       .  S
O802       Cr811   2.048       .  S
O802        C810   1.274       .  A
O803       Cr811   2.006       .  S
O803        C804   1.273       .  A
C804        O805   1.273       .  A
C804       C1251   1.488       .  S
O805       Cr812   2.028       .  S
O806       Cr812   1.930       .  S
O806        C807   1.257       .  A
C807        O808   1.263       .  A
C807       C1228   1.454       .  S
O808       Cr813   1.993       .  S
O809       Cr813   1.948       .  S
O809        C810   1.251       .  A
C810       C1238   1.494       .  S
Cr811       O814   1.758       .  S
Cr812       O814   1.768       .  S
Cr813       O814   1.754       .  S
O815       Cr833   2.038       .  S
O815        C823   1.264       .  A
O816       Cr833   1.988       .  S
O816        C817   1.264       .  A
C817        O818   1.269       .  A
C817       C1591   1.480       .  S
O818       Cr834   1.991       .  S
O819       Cr834   2.080       .  S
O819        C820   1.272       .  A
C820        O821   1.245       .  A
C820       C1391   1.510       .  S
O821       Cr835   1.953       .  S
O822       Cr835   1.981       .  S
O822        C823   1.259       .  A
C823       C2411   1.516       .  S
O824       Cr833   2.062       .  S
O824        C832   1.278       .  A
O825       Cr833   2.012       .  S
O825        C826   1.277       .  A
C826        O827   1.276       .  A
C826       C1198   1.510       .  S
O827       Cr834   2.034       .  S
O828       Cr834   1.935       .  S
O828        C829   1.255       .  A
C829        O830   1.262       .  A
C829       C1231   1.437       .  S
O830       Cr835   1.991       .  S
O831       Cr835   1.941       .  S
O831        C832   1.252       .  A
C832       C1208   1.498       .  S
Cr833       O836   1.761       .  S
Cr834       O836   1.772       .  S
Cr835       O836   1.758       .  S
O837       Cr855   1.998       .  S
O837        C845   1.266       .  A
O838       Cr855   1.948       .  S
O838        C839   1.240       .  A
C839        O840   1.272       .  A
C839       C1481   1.512       .  S
O840       Cr856   2.085       .  S
O841       Cr856   1.982       .  S
O841        C842   1.268       .  A
C842        O843   1.267       .  A
C842       C2001   1.482       .  S
O843       Cr857   1.989       .  S
O844       Cr857   2.015       .  S
O844        C845   1.261       .  A
C845       C1308   1.516       .  S
O846       Cr855   1.950       .  S
O846        C854   1.249       .  A
O847       Cr855   2.003       .  S
O847        C848   1.269       .  A
C848        O849   1.248       .  A
C848       C1188   1.450       .  S
O849       Cr856   1.924       .  S
O850       Cr856   2.030       .  S
O850        C851   1.274       .  A
C851        O852   1.271       .  A
C851       C1211   1.500       .  S
O852       Cr857   1.994       .  S
O853       Cr857   2.056       .  S
O853        C854   1.276       .  A
C854       C1248   1.487       .  S
Cr855       O858   1.754       .  S
Cr856       O858   1.772       .  S
Cr857       O858   1.760       .  S
O859       Cr877   2.002       .  S
O859        C867   1.269       .  A
O860       Cr877   1.922       .  S
O860        C861   1.237       .  A
C861        O862   1.265       .  A
C861       C1891   1.503       .  S
O862       Cr878   2.073       .  S
O863       Cr878   1.982       .  S
O863        C864   1.271       .  A
C864        O865   1.271       .  A
C864       C1988   1.484       .  S
O865       Cr879   1.997       .  S
O866       Cr879   2.007       .  S
O866        C867   1.263       .  A
C867       C2171   1.502       .  S
O868       Cr877   1.954       .  S
O868        C876   1.251       .  A
O869       Cr877   2.009       .  S
O869        C870   1.272       .  A
C870        O871   1.252       .  A
C870       C1191   1.434       .  S
O871       Cr878   1.915       .  S
O872       Cr878   2.018       .  S
O872        C873   1.265       .  A
C873        O874   1.267       .  A
C873       C1241   1.496       .  S
O874       Cr879   1.993       .  S
O875       Cr879   2.053       .  S
O875        C876   1.274       .  A
C876       C1201   1.514       .  S
Cr877       O880   1.766       .  S
Cr878       O880   1.780       .  S
Cr879       O880   1.763       .  S
O881       Cr899   1.997       .  S
O881        C889   1.264       .  A
O882       Cr899   1.952       .  S
O882        C883   1.241       .  A
C883        O884   1.268       .  A
C883       C1148   1.502       .  S
O884       Cr900   2.063       .  S
O885       Cr900   1.967       .  S
O885        C886   1.264       .  A
C886        O887   1.268       .  A
C886       C1661   1.474       .  S
O887       Cr901   1.998       .  S
O888       Cr901   2.005       .  S
O888        C889   1.260       .  A
C889       C1371   1.503       .  S
O890       Cr899   1.947       .  S
O890        C898   1.250       .  A
O891       Cr899   2.011       .  S
O891        C892   1.268       .  A
C892        O893   1.253       .  A
C892       C1158   1.427       .  S
O893       Cr900   1.923       .  S
O894       Cr900   2.029       .  S
O894        C895   1.271       .  A
C895        O896   1.270       .  A
C895       C1178   1.483   1_554  S
O896       Cr901   1.995       .  S
O897       Cr901   2.055       .  S
O897        C898   1.275       .  A
C898       C1171   1.483       .  S
Cr899       O902   1.758       .  S
Cr900       O902   1.772       .  S
Cr901       O902   1.761       .  S
O903       Cr921   2.017       .  S
O903        C911   1.265       .  A
O904       Cr921   1.997       .  S
O904        C905   1.270       .  A
C905        O906   1.271   1_545  A
C905       C2091   1.462       .  S
O906       Cr922   1.980   1_565  S
O907       Cr922   2.042   1_565  S
O907        C908   1.262       .  A
C908        O909   1.249       .  A
C908       C2221   1.484       .  S
O909       Cr923   1.964   1_565  S
O910       Cr923   1.982       .  S
O910        C911   1.262       .  A
C911       C1471   1.504   1_545  S
O912       Cr921   2.046       .  S
O912        C920   1.273       .  A
O913       Cr921   2.018       .  S
O913        C914   1.271       .  A
C914        O915   1.261       .  A
C914       C1168   1.482       .  S
O915       Cr922   2.006       .  S
O916       Cr922   1.932       .  S
O916        C917   1.257       .  A
C917        O918   1.266       .  A
C917       C1128   1.445       .  S
O918       Cr923   1.986       .  S
O919       Cr923   1.944       .  S
O919        C920   1.249       .  A
C920       C1141   1.492       .  S
Cr921       O924   1.760       .  S
Cr922       O924   1.773       .  S
Cr923       O924   1.762       .  S
O925       Cr943   1.999       .  S
O925        C933   1.265       .  A
O926       Cr943   1.991       .  S
O926        C927   1.267       .  A
C927        O928   1.278   1_545  A
C927       C2041   1.480       .  S
O928       Cr944   2.011   1_565  S
O929       Cr944   2.067   1_565  S
O929        C930   1.269       .  A
C930        O931   1.246       .  A
C930       C1261   1.501       .  S
O931       Cr945   1.955   1_565  S
O932       Cr945   1.985       .  S
O932        C933   1.262       .  A
C933       C1851   1.487   1_545  S
O934       Cr943   2.028       .  S
O934        C942   1.264       .  A
O935       Cr943   2.011       .  S
O935        C936   1.271       .  A
C936        O937   1.264       .  A
C936       C1118   1.511       .  S
O937       Cr944   2.015       .  S
O938       Cr944   1.942       .  S
O938        C939   1.256       .  A
C939        O940   1.261       .  A
C939       C1131   1.443       .  S
O940       Cr945   1.967       .  S
O941       Cr945   1.955       .  S
O941        C942   1.248       .  A
C942       C1181   1.482       .  S
Cr943       O946   1.767       .  S
Cr944       O946   1.784       .  S
Cr945       O946   1.773       .  S
O947       Cr965   1.976       .  S
O947        C955   1.260       .  A
O948       Cr965   1.926       .  S
O948        C949   1.233       .  A
C949        O950   1.256       .  A
C949       C2331   1.499       .  S
O950       Cr966   2.066       .  S
O951       Cr966   1.996       .  S
O951        C952   1.277       .  A
C952        O953   1.272       .  A
C952       C1581   1.489       .  S
O953       Cr967   1.994       .  S
O954       Cr967   2.032       .  S
O954        C955   1.270       .  A
C955       C1791   1.502       .  S
O956       Cr965   1.946       .  S
O956        C964   1.248       .  A
O957       Cr965   2.001       .  S
O957        C958   1.272       .  A
C958        O959   1.260       .  A
C958       C1161   1.433       .  S
O959       Cr966   1.934       .  S
O960       Cr966   2.008   1_554  S
O960        C961   1.262   1_554  A
C961        O962   1.269       .  A
C961       C1138   1.496   1_556  S
O962       Cr967   2.014       .  S
O963       Cr967   2.048       .  S
O963        C964   1.273       .  A
C964       C1121   1.511       .  S
Cr965       O968   1.768       .  S
Cr966       O968   1.790       .  S
Cr967       O968   1.763       .  S
O969       Cr987   1.977       .  S
O969        C977   1.258       .  A
O970       Cr987   1.960       .  S
O970        C971   1.250       .  A
C971        O972   1.270       .  A
C971       C1281   1.507       .  S
O972       Cr988   2.064       .  S
O973       Cr988   1.962       .  S
O973        C974   1.263       .  A
C974        O975   1.270       .  A
C974       C2351   1.476       .  S
O975       Cr989   2.002       .  S
O976       Cr989   2.027       .  S
O976        C977   1.259       .  A
C977       C2021   1.510       .  S
O978       Cr987   1.931       .  S
O978        C986   1.251       .  A
O979       Cr987   1.990       .  S
O979        C980   1.263       .  A
C980        O981   1.258       .  A
C980       C1088   1.443       .  S
O981       Cr988   1.926       .  S
O982       Cr988   2.034       .  S
O982        C983   1.272       .  A
C983        O984   1.268       .  A
C983       C1111   1.490       .  S
O984       Cr989   2.000       .  S
O985       Cr989   2.066       .  S
O985        C986   1.280       .  A
C986       C1098   1.509       .  S
Cr987       O990   1.757       .  S
Cr988       O990   1.766       .  S
Cr989       O990   1.763       .  S
O991      Cr1009   2.025       .  S
O991        C999   1.266       .  A
O992      Cr1009   1.980       .  S
O992        C993   1.262       .  A
C993        O994   1.272       .  A
C993       C1458   1.474       .  S
O994      Cr1010   1.989       .  S
O995      Cr1010   2.070       .  S
O995        C996   1.260       .  A
C996        O997   1.236       .  A
C996       C1628   1.501       .  S
O997      Cr1011   1.936       .  S
O998      Cr1011   1.986       .  S
O998        C999   1.261       .  A
C999       C2281   1.500       .  S
O1000     Cr1009   2.041       .  S
O1000      C1008   1.273       .  A
O1001     Cr1009   1.998       .  S
O1001      C1002   1.269       .  A
C1002      O1003   1.270       .  A
C1002      C1101   1.506       .  S
O1003     Cr1010   2.025       .  S
O1004     Cr1010   1.926       .  S
O1004      C1005   1.257       .  A
C1005      O1006   1.269       .  A
C1005      C1068   1.433       .  S
O1006     Cr1011   1.998       .  S
O1007     Cr1011   1.939       .  S
O1007      C1008   1.247       .  A
C1008      C1078   1.504       .  S
Cr1009     O1012   1.755       .  S
Cr1010     O1012   1.787       .  S
Cr1011     O1012   1.756       .  S
O1013     Cr1031   1.988       .  S
O1013      C1021   1.263       .  A
O1014     Cr1031   1.953       .  S
O1014      C1015   1.247       .  A
C1015      O1016   1.268       .  A
C1015      C1361   1.487       .  S
O1016     Cr1032   2.058       .  S
O1017     Cr1032   1.961       .  S
O1017      C1018   1.261       .  A
C1018      O1019   1.269       .  A
C1018      C2321   1.475       .  S
O1019     Cr1033   2.000       .  S
O1020     Cr1033   2.012       .  S
O1020      C1021   1.262       .  A
C1021      C1151   1.501       .  S
O1022     Cr1031   1.944       .  S
O1022      C1030   1.250       .  A
O1023     Cr1031   1.993       .  S
O1023      C1024   1.266       .  A
C1024      O1025   1.248       .  A
C1024      C1091   1.415       .  S
O1025     Cr1032   1.916       .  S
O1026     Cr1032   2.020       .  S
O1026      C1027   1.269       .  A
C1027      O1028   1.273       .  A
C1027      C1081   1.502       .  S
O1028     Cr1033   1.997       .  S
O1029     Cr1033   2.059       .  S
O1029      C1030   1.276       .  A
C1030      C1058   1.496       .  S
Cr1031     O1034   1.752       .  S
Cr1032     O1034   1.769       .  S
Cr1033     O1034   1.757       .  S
O1035     Cr1053   2.016       .  S
O1035      C1043   1.262       .  A
O1036     Cr1053   1.985       .  S
O1036      C1037   1.260       .  A
C1037      O1038   1.267       .  A
C1037      C1511   1.479       .  S
O1038     Cr1054   1.981       .  S
O1039     Cr1054   2.071       .  S
O1039      C1040   1.270       .  A
C1040      O1041   1.246       .  A
C1040      C1221   1.501       .  S
O1041     Cr1055   1.953       .  S
O1042     Cr1055   1.989       .  S
O1042      C1043   1.263       .  A
C1043      C1731   1.508       .  S
O1044     Cr1053   2.052       .  S
O1044      C1052   1.274       .  A
O1045     Cr1053   1.996       .  S
O1045      C1046   1.273       .  A
C1046      O1047   1.274       .  A
C1046      C1061   1.501       .  S
O1047     Cr1054   2.031       .  S
O1048     Cr1054   1.925       .  S
O1048      C1049   1.251       .  A
C1049      O1050   1.264       .  A
C1049      C1071   1.421       .  S
O1050     Cr1055   1.998       .  S
O1051     Cr1055   1.957       .  S
O1051      C1052   1.253       .  A
C1052      C1108   1.488       .  S
Cr1053     O1056   1.762       .  S
Cr1054     O1056   1.775       .  S
Cr1055     O1056   1.759       .  S
C1057      C1058   1.404       .  A
C1057      C1062   1.411       .  A
C1057      H1064   1.083       .  S
C1058      C1059   1.419       .  A
C1059      C1060   1.401       .  A
C1059     Br1066   1.924       .  S
C1060      C1061   1.403       .  A
C1060      H1065   1.083       .  S
C1061      C1062   1.422       .  A
C1062     Br1063   1.920       .  S
C1067      C1068   1.398       .  A
C1067      C1072   1.380       .  A
C1067      H1074   1.084       .  S
C1068      C1069   1.406       .  A
C1069      C1070   1.380       .  A
C1069     Br1076   1.920       .  S
C1070      C1071   1.391       .  A
C1070      H1075   1.081       .  S
C1071      C1072   1.401       .  A
C1072     Br1073   1.916       .  S
C1077      C1078   1.406       .  A
C1077      C1082   1.410       .  A
C1077      H1084   1.083       .  S
C1078      C1079   1.427       .  A
C1079      C1080   1.399       .  A
C1079     Br1086   1.929       .  S
C1080      C1081   1.401       .  A
C1080      H1085   1.083       .  S
C1081      C1082   1.423       .  A
C1082     Br1083   1.922       .  S
C1087      C1088   1.404       .  A
C1087      C1092   1.375       .  A
C1087      H1094   1.080       .  S
C1088      C1089   1.409       .  A
C1089      C1090   1.382       .  A
C1089     Br1096   1.917       .  S
C1090      C1091   1.393       .  A
C1090      H1095   1.085       .  S
C1091      C1092   1.390       .  A
C1092     Br1093   1.914       .  S
C1097      C1098   1.415       .  A
C1097      C1102   1.396       .  A
C1097      H1104   1.083       .  S
C1098      C1099   1.412       .  A
C1099      C1100   1.415       .  A
C1099     Br1106   1.917       .  S
C1100      C1101   1.418       .  A
C1100      H1105   1.083       .  S
C1101      C1102   1.413       .  A
C1102     Br1103   1.926       .  S
C1107      C1108   1.407       .  A
C1107      C1112   1.413       .  A
C1107      H1114   1.083       .  S
C1108      C1109   1.410       .  A
C1109      C1110   1.402       .  A
C1109     Br1116   1.917       .  S
C1110      C1111   1.401       .  A
C1110      H1115   1.081       .  S
C1111      C1112   1.413       .  A
C1112     Br1113   1.917       .  S
C1117      C1118   1.401       .  A
C1117      C1122   1.400       .  A
C1117      H1124   1.083       .  S
C1118      C1119   1.426       .  A
C1119      C1120   1.415       .  A
C1119     Br1126   1.921       .  S
C1120      C1121   1.407       .  A
C1120      H1125   1.083       .  S
C1121      C1122   1.427       .  A
C1122     Br1123   1.927       .  S
C1127      C1128   1.400       .  A
C1127      C1132   1.378       .  A
C1127      H1134   1.084       .  S
C1128      C1129   1.407       .  A
C1129      C1130   1.381   1_554  A
C1129     Br1136   1.919       .  S
C1130      C1131   1.399       .  A
C1130      H1135   1.084       .  S
C1131      C1132   1.408   1_556  A
C1132     Br1133   1.924       .  S
C1137      C1138   1.402       .  A
C1137      C1142   1.404       .  A
C1137      H1144   1.083   1_554  S
C1138      C1139   1.420       .  A
C1139      C1140   1.409       .  A
C1139     Br1146   1.920       .  S
C1140      C1141   1.403       .  A
C1140      H1145   1.083       .  S
C1141      C1142   1.416       .  A
C1142     Br1143   1.921       .  S
C1147      C1148   1.404       .  A
C1147      C1152   1.411       .  A
C1147      H1154   1.083       .  S
C1148      C1149   1.424       .  A
C1149      C1150   1.397       .  A
C1149     Br1156   1.920       .  S
C1150      C1151   1.400       .  A
C1150      H1155   1.084       .  S
C1151      C1152   1.421       .  A
C1152     Br1153   1.911       .  S
C1157      C1158   1.395       .  A
C1157      C1162   1.385       .  A
C1157      H1164   1.081       .  S
C1158      C1159   1.402       .  A
C1159      C1160   1.380   1_554  A
C1159     Br1166   1.917       .  S
C1160      C1161   1.397       .  A
C1160      H1165   1.084       .  S
C1161      C1162   1.404   1_556  A
C1162     Br1163   1.921       .  S
C1167      C1168   1.400       .  A
C1167      C1172   1.400       .  A
C1167      H1174   1.084       .  S
C1168      C1169   1.412       .  A
C1169      C1170   1.410       .  A
C1169     Br1176   1.916       .  S
C1170      C1171   1.406       .  A
C1170      H1175   1.083       .  S
C1171      C1172   1.410       .  A
C1172     Br1173   1.911       .  S
C1177      C1178   1.399       .  A
C1177      C1182   1.398       .  A
C1177      H1184   1.082       .  S
C1178      C1179   1.411       .  A
C1179      C1180   1.411       .  A
C1179     Br1186   1.916       .  S
C1180      C1181   1.406       .  A
C1180      H1185   1.083       .  S
C1181      C1182   1.412       .  A
C1182     Br1183   1.918       .  S
C1187      C1188   1.397       .  A
C1187      C1192   1.375       .  A
C1187      H1194   1.084       .  S
C1188      C1189   1.419       .  A
C1189      C1190   1.382       .  A
C1189     Br1196   1.921       .  S
C1190      C1191   1.390       .  A
C1190      H1195   1.084       .  S
C1191      C1192   1.409       .  A
C1192     Br1193   1.925       .  S
C1197      C1198   1.414       .  A
C1197      C1202   1.417       .  A
C1197      H1204   1.083       .  S
C1198      C1199   1.411       .  A
C1199      C1200   1.407       .  A
C1199     Br1206   1.919       .  S
C1200      C1201   1.414       .  A
C1200      H1205   1.083       .  S
C1201      C1202   1.416       .  A
C1202     Br1203   1.918       .  S
C1207      C1208   1.411       .  A
C1207      C1212   1.399       .  A
C1207      H1214   1.084       .  S
C1208      C1209   1.410       .  A
C1209      C1210   1.411       .  A
C1209     Br1216   1.917       .  S
C1210      C1211   1.413       .  A
C1210      H1215   1.081       .  S
C1211      C1212   1.411       .  A
C1212     Br1213   1.921       .  S
C1217      C1218   1.415       .  A
C1217      C1222   1.416       .  A
C1217      H1224   1.083       .  S
C1218      C1219   1.407       .  A
C1219      C1220   1.396       .  A
C1219     Br1226   1.921       .  S
C1220      C1221   1.411       .  A
C1220      H1225   1.083       .  S
C1221      C1222   1.410       .  A
C1222     Br1223   1.916       .  S
C1227      C1228   1.407       .  A
C1227      C1232   1.379       .  A
C1227      H1234   1.083       .  S
C1228      C1229   1.412       .  A
C1229      C1230   1.382       .  A
C1229     Br1236   1.924       .  S
C1230      C1231   1.398       .  A
C1230      H1235   1.084       .  S
C1231      C1232   1.400       .  A
C1232     Br1233   1.922       .  S
C1237      C1238   1.403       .  A
C1237      C1242   1.407       .  A
C1237      H1244   1.083       .  S
C1238      C1239   1.419       .  A
C1239      C1240   1.397       .  A
C1239     Br1246   1.923       .  S
C1240      C1241   1.402       .  A
C1240      H1245   1.083       .  S
C1241      C1242   1.421       .  A
C1242     Br1243   1.919       .  S
C1247      C1248   1.406       .  A
C1247      C1252   1.411       .  A
C1247      H1254   1.083       .  S
C1248      C1249   1.414       .  A
C1249      C1250   1.405       .  A
C1249     Br1256   1.919       .  S
C1250      C1251   1.402       .  A
C1250      H1255   1.084       .  S
C1251      C1252   1.411       .  A
C1252     Br1253   1.916       .  S
C1257      C1258   1.412       .  A
C1257      C1262   1.410       .  A
C1257      H1264   1.080       .  S
C1258      C1259   1.404   1_556  A
C1259      C1260   1.409   1_554  A
C1259     Br1266   1.916       .  S
C1260      C1261   1.415       .  A
C1260      H1265   1.076       .  S
C1261      C1262   1.406       .  A
C1262     Br1263   1.914       .  S
C1267      C1268   1.410       .  A
C1267      C1272   1.397       .  A
C1267      H1274   1.084       .  S
C1268      C1269   1.412       .  A
C1269      C1270   1.414       .  A
C1269     Br1276   1.917       .  S
C1270      C1271   1.416       .  A
C1270      H1275   1.083       .  S
C1271      C1272   1.415       .  A
C1272     Br1273   1.924       .  S
C1277      C1278   1.414       .  A
C1277      C1282   1.416       .  A
C1277      H1284   1.083       .  S
C1278      C1279   1.419       .  A
C1279      C1280   1.398       .  A
C1279     Br1286   1.925       .  S
C1280      C1281   1.408       .  A
C1280      H1285   1.082       .  S
C1281      C1282   1.415       .  A
C1282     Br1283   1.916       .  S
C1287      C1288   1.396       .  A
C1287      C1292   1.382   1_655  A
C1287      H1294   1.084       .  S
C1288      C1289   1.421       .  A
C1289      C1290   1.385       .  A
C1289     Br1296   1.927       .  S
C1290      C1291   1.392   1_655  A
C1290      H1295   1.084       .  S
C1291      C1292   1.414       .  A
C1292     Br1293   1.927       .  S
C1297      C1298   1.416       .  A
C1297      C1302   1.400   1_455  A
C1297      H1304   1.083       .  S
C1298      C1299   1.410       .  A
C1299      C1300   1.412       .  A
C1299     Br1306   1.917       .  S
C1300      C1301   1.417   1_455  A
C1300      H1305   1.083       .  S
C1301      C1302   1.407       .  A
C1302     Br1303   1.919       .  S
C1307      C1308   1.404       .  A
C1307      C1312   1.399       .  A
C1307      H1314   1.075       .  S
C1308      C1309   1.422       .  A
C1309      C1310   1.420       .  A
C1309     Br1316   1.919       .  S
C1310      C1311   1.414       .  A
C1310      H1315   1.083       .  S
C1311      C1312   1.417       .  A
C1312     Br1313   1.925       .  S
C1317      C1318   1.400       .  A
C1317      C1322   1.379       .  A
C1317      H1324   1.084       .  S
C1318      C1319   1.411   1_455  A
C1319      C1320   1.372       .  A
C1319     Br1326   1.929       .  S
C1320      C1321   1.396       .  A
C1320      H1325   1.085       .  S
C1321      C1322   1.406   1_655  A
C1322     Br1323   1.923       .  S
C1327      C1328   1.406       .  A
C1327      C1332   1.400       .  A
C1327      H1334   1.084       .  S
C1328      C1329   1.409       .  A
C1329      C1330   1.413       .  A
C1329     Br1336   1.916       .  S
C1330      C1331   1.410       .  A
C1330      H1335   1.082       .  S
C1331      C1332   1.409       .  A
C1332     Br1333   1.920   1_655  S
C1337      C1338   1.408       .  A
C1337      C1342   1.398       .  A
C1337      H1344   1.084       .  S
C1338      C1339   1.411       .  A
C1339      C1340   1.411       .  A
C1339     Br1346   1.917       .  S
C1340      C1341   1.411       .  A
C1340      H1345   1.083       .  S
C1341      C1342   1.411       .  A
C1342     Br1343   1.922       .  S
C1347      C1348   1.398       .  A
C1347      C1352   1.392       .  A
C1347      H1354   1.083       .  S
C1348      C1349   1.423       .  A
C1349      C1350   1.393       .  A
C1349     Br1356   1.926       .  S
C1350      C1351   1.395       .  A
C1350      H1355   1.084       .  S
C1351      C1352   1.417       .  A
C1352     Br1353   1.925       .  S
C1357      C1358   1.408       .  A
C1357      C1362   1.396       .  A
C1357      H1364   1.077       .  S
C1358      C1359   1.411       .  A
C1359      C1360   1.414       .  A
C1359     Br1366   1.913       .  S
C1360      C1361   1.413       .  A
C1360      H1365   1.083       .  S
C1361      C1362   1.405       .  A
C1362     Br1363   1.921       .  S
C1367      C1368   1.412       .  A
C1367      C1372   1.399       .  A
C1367      H1374   1.083       .  S
C1368      C1369   1.410       .  A
C1369      C1370   1.417       .  A
C1369     Br1376   1.915       .  S
C1370      C1371   1.418       .  A
C1370      H1375   1.083       .  S
C1371      C1372   1.409       .  A
C1372     Br1373   1.922       .  S
C1377      C1378   1.402       .  A
C1377      C1382   1.407       .  A
C1377      H1384   1.084       .  S
C1378      C1379   1.417       .  A
C1379      C1380   1.399       .  A
C1379     Br1386   1.923       .  S
C1380      C1381   1.401       .  A
C1380      H1385   1.084       .  S
C1381      C1382   1.420       .  A
C1382     Br1383   1.917       .  S
C1387      C1388   1.417       .  A
C1387      C1392   1.419       .  A
C1387      H1394   1.083       .  S
C1388      C1389   1.410       .  A
C1389      C1390   1.399       .  A
C1389     Br1396   1.921       .  S
C1390      C1391   1.413       .  A
C1390      H1395   1.083       .  S
C1391      C1392   1.411       .  A
C1392     Br1393   1.913       .  S
C1397      C1398   1.405       .  A
C1397      C1402   1.381   1_455  A
C1397      H1404   1.084       .  S
C1398      C1399   1.405   1_455  A
C1399      C1400   1.377       .  A
C1399     Br1406   1.925       .  S
C1400      C1401   1.402       .  A
C1400      H1405   1.081       .  S
C1401      C1402   1.404       .  A
C1402     Br1403   1.925       .  S
C1407      C1408   1.411       .  A
C1407      C1412   1.401   1_455  A
C1407      H1414   1.084       .  S
C1408      C1409   1.410       .  A
C1409      C1410   1.415       .  A
C1409     Br1416   1.916       .  S
C1410      C1411   1.415   1_455  A
C1410      H1415   1.083       .  S
C1411      C1412   1.410       .  A
C1412     Br1413   1.922       .  S
C1417      C1418   1.391       .  A
C1417      C1422   1.385   1_565  A
C1417      H1424   1.078       .  S
C1418      C1419   1.410       .  A
C1419      C1420   1.399   1_565  A
C1419     Br1426   1.919   1_455  S
C1420      C1421   1.402       .  A
C1420      H1425   1.083       .  S
C1421      C1422   1.415       .  A
C1422     Br1423   1.924       .  S
C1427      C1428   1.404   1_655  A
C1427      C1432   1.378       .  A
C1427      H1434   1.084       .  S
C1428      C1429   1.400       .  A
C1429      C1430   1.377       .  A
C1429     Br1436   1.922       .  S
C1430      C1431   1.406   1_455  A
C1430      H1435   1.084       .  S
C1431      C1432   1.404       .  A
C1432     Br1433   1.922       .  S
C1437      C1438   1.412       .  A
C1437      C1442   1.411       .  A
C1437      H1444   1.083       .  S
C1438      C1439   1.407       .  A
C1439      C1440   1.402       .  A
C1439     Br1446   1.919   1_655  S
C1440      C1441   1.411       .  A
C1440      H1445   1.084       .  S
C1441      C1442   1.410       .  A
C1442     Br1443   1.918       .  S
C1447      C1448   1.411       .  A
C1447      C1452   1.410       .  A
C1447      H1454   1.083       .  S
C1448      C1449   1.408       .  A
C1449      C1450   1.401       .  A
C1449     Br1456   1.919       .  S
C1450      C1451   1.409       .  A
C1450      H1455   1.084       .  S
C1451      C1452   1.409       .  A
C1452     Br1453   1.917       .  S
C1457      C1458   1.403       .  A
C1457      C1462   1.396       .  A
C1457      H1464   1.083       .  S
C1458      C1459   1.424       .  A
C1459      C1460   1.386       .  A
C1459     Br1466   1.928       .  S
C1460      C1461   1.392       .  A
C1460      H1465   1.085       .  S
C1461      C1462   1.410       .  A
C1462     Br1463   1.921       .  S
C1467      C1468   1.409       .  A
C1467      C1472   1.414       .  A
C1467      H1474   1.076       .  S
C1468      C1469   1.411       .  A
C1469      C1470   1.398       .  A
C1469     Br1476   1.917       .  S
C1470      C1471   1.409       .  A
C1470      H1475   1.083       .  S
C1471      C1472   1.417       .  A
C1472     Br1473   1.919   1_565  S
C1477      C1478   1.396       .  A
C1477      C1482   1.396       .  A
C1477      H1484   1.084       .  S
C1478      C1479   1.421       .  A
C1479      C1480   1.418       .  A
C1479     Br1486   1.909       .  S
C1480      C1481   1.408       .  A
C1480      H1485   1.083       .  S
C1481      C1482   1.428       .  A
C1482     Br1483   1.919       .  S
C1487      C1488   1.411       .  A
C1487      C1492   1.399       .  A
C1487      H1494   1.082       .  S
C1488      C1489   1.405       .  A
C1489      C1490   1.412       .  A
C1489     Br1496   1.915       .  S
C1490      C1491   1.411       .  A
C1490      H1495   1.076       .  S
C1491      C1492   1.404       .  A
C1492     Br1493   1.919       .  S
C1497      C1498   1.415       .  A
C1497      C1502   1.416       .  A
C1497      H1504   1.083       .  S
C1498      C1499   1.410       .  A
C1499      C1500   1.399       .  A
C1499     Br1506   1.922       .  S
C1500      C1501   1.411       .  A
C1500      H1505   1.084       .  S
C1501      C1502   1.412       .  A
C1502     Br1503   1.917       .  S
C1507      C1508   1.396       .  A
C1507      C1512   1.393       .  A
C1507      H1514   1.084       .  S
C1508      C1509   1.415       .  A
C1509      C1510   1.393       .  A
C1509     Br1516   1.925       .  S
C1510      C1511   1.401       .  A
C1510      H1515   1.083       .  S
C1511      C1512   1.423       .  A
C1512     Br1513   1.926       .  S
C1517      C1518   1.397       .  A
C1517      C1522   1.376   1_545  A
C1517      H1524   1.083       .  S
C1518      C1519   1.405       .  A
C1519      C1520   1.384   1_545  A
C1519     Br1526   1.921       .  S
C1520      C1521   1.396       .  A
C1520      H1525   1.084       .  S
C1521      C1522   1.400       .  A
C1522     Br1523   1.917       .  S
C1527      C1528   1.410       .  A
C1527      C1532   1.392       .  A
C1527      H1534   1.084       .  S
C1528      C1529   1.410       .  A
C1529      C1530   1.415       .  A
C1529     Br1536   1.916       .  S
C1530      C1531   1.416       .  A
C1530      H1535   1.083       .  S
C1531      C1532   1.408       .  A
C1532     Br1533   1.922   1_545  S
C1537      C1538   1.412       .  A
C1537      C1542   1.396       .  A
C1537      H1544   1.083       .  S
C1538      C1539   1.413       .  A
C1539      C1540   1.417       .  A
C1539     Br1546   1.916       .  S
C1540      C1541   1.417       .  A
C1540      H1545   1.083       .  S
C1541      C1542   1.410       .  A
C1542     Br1543   1.923       .  S
C1547      C1548   1.399   1_545  A
C1547      C1552   1.379       .  A
C1547      H1554   1.085       .  S
C1548      C1549   1.396       .  A
C1549      C1550   1.378       .  A
C1549     Br1556   1.920       .  S
C1550      C1551   1.409   1_565  A
C1550      H1555   1.084       .  S
C1551      C1552   1.409       .  A
C1552     Br1553   1.923       .  S
C1557      C1558   1.407       .  A
C1557      C1562   1.414       .  A
C1557      H1564   1.083       .  S
C1558      C1559   1.427       .  A
C1559      C1560   1.397   1_565  A
C1559     Br1566   1.929   1_565  S
C1560      C1561   1.401   1_545  A
C1560      H1565   1.083       .  S
C1561      C1562   1.423       .  A
C1562     Br1563   1.920       .  S
C1567      C1568   1.403       .  A
C1567      C1572   1.410       .  A
C1567      H1574   1.084       .  S
C1568      C1569   1.417       .  A
C1569      C1570   1.402       .  A
C1569     Br1576   1.924       .  S
C1570      C1571   1.403       .  A
C1570      H1575   1.083       .  S
C1571      C1572   1.422       .  A
C1572     Br1573   1.920       .  S
C1577      C1578   1.409       .  A
C1577      C1582   1.401       .  A
C1577      H1584   1.084       .  S
C1578      C1579   1.402       .  A
C1579      C1580   1.393       .  A
C1579     Br1586   1.923       .  S
C1580      C1581   1.415       .  A
C1580      H1585   1.083       .  S
C1581      C1582   1.411       .  A
C1582     Br1583   1.920       .  S
C1587      C1588   1.406       .  A
C1587      C1592   1.397       .  A
C1587      H1594   1.084       .  S
C1588      C1589   1.400       .  A
C1589      C1590   1.395       .  A
C1589     Br1596   1.919       .  S
C1590      C1591   1.413       .  A
C1590      H1595   1.083       .  S
C1591      C1592   1.409       .  A
C1592     Br1593   1.920       .  S
C1597      C1598   1.406       .  A
C1597      C1602   1.416       .  A
C1597      H1604   1.083       .  S
C1598      C1599   1.417       .  A
C1599      C1600   1.399       .  A
C1599     Br1606   1.921       .  S
C1600      C1601   1.400       .  A
C1600      H1605   1.084       .  S
C1601      C1602   1.418       .  A
C1602     Br1603   1.917       .  S
C1607      C1608   1.392       .  A
C1607      C1612   1.393   1_554  A
C1607      H1614   1.084       .  S
C1608      C1609   1.424   1_554  A
C1609      C1610   1.417       .  A
C1609     Br1616   1.908   1_556  S
C1610      C1611   1.404       .  A
C1610      H1615   1.083       .  S
C1611      C1612   1.427       .  A
C1612     Br1613   1.914       .  S
C1617      C1618   1.396       .  A
C1617      C1622   1.394       .  A
C1617      H1624   1.084       .  S
C1618      C1619   1.412       .  A
C1619      C1620   1.393       .  A
C1619     Br1626   1.924       .  S
C1620      C1621   1.402       .  A
C1620      H1625   1.083       .  S
C1621      C1622   1.423       .  A
C1622     Br1623   1.925       .  S
C1627      C1628   1.410       .  A
C1627      C1632   1.393       .  A
C1627      H1634   1.083       .  S
C1628      C1629   1.410       .  A
C1629      C1630   1.416       .  A
C1629     Br1636   1.914       .  S
C1630      C1631   1.416       .  A
C1630      H1635   1.083       .  S
C1631      C1632   1.412       .  A
C1632     Br1633   1.925       .  S
C1637      C1638   1.407       .  A
C1637      C1642   1.379       .  A
C1637      H1644   1.084       .  S
C1638      C1639   1.408       .  A
C1639      C1640   1.382   1_554  A
C1639     Br1646   1.925       .  S
C1640      C1641   1.402       .  A
C1640      H1645   1.084       .  S
C1641      C1642   1.398   1_556  A
C1642     Br1643   1.921       .  S
C1647      C1648   1.410       .  A
C1647      C1652   1.399       .  A
C1647      H1654   1.084       .  S
C1648      C1649   1.411       .  A
C1649      C1650   1.412       .  A
C1649     Br1656   1.918       .  S
C1650      C1651   1.413       .  A
C1650      H1655   1.083       .  S
C1651      C1652   1.410       .  A
C1652     Br1653   1.921   1_554  S
C1657      C1658   1.410       .  A
C1657      C1662   1.390   1_455  A
C1657      H1664   1.083       .  S
C1658      C1659   1.410       .  A
C1659      C1660   1.394   1_455  A
C1659     Br1666   1.922       .  S
C1660      C1661   1.409       .  A
C1660      H1665   1.083       .  S
C1661      C1662   1.408       .  A
C1662     Br1663   1.924       .  S
C1667      C1668   1.408       .  A
C1667      C1672   1.413       .  A
C1667      H1674   1.083       .  S
C1668      C1669   1.424       .  A
C1669      C1670   1.395       .  A
C1669     Br1676   1.922       .  S
C1670      C1671   1.401       .  A
C1670      H1675   1.083       .  S
C1671      C1672   1.419       .  A
C1672     Br1673   1.909       .  S
C1677      C1678   1.399       .  A
C1677      C1682   1.397       .  A
C1677      H1684   1.084       .  S
C1678      C1679   1.422       .  A
C1679      C1680   1.418       .  A
C1679     Br1686   1.911       .  S
C1680      C1681   1.408       .  A
C1680      H1685   1.083       .  S
C1681      C1682   1.424       .  A
C1682     Br1683   1.919       .  S
C1687      C1688   1.400   1_556  A
C1687      C1692   1.380       .  A
C1687      H1694   1.083       .  S
C1688      C1689   1.401       .  A
C1689      C1690   1.384       .  A
C1689     Br1696   1.922       .  S
C1690      C1691   1.410   1_554  A
C1690      H1695   1.083       .  S
C1691      C1692   1.409       .  A
C1692     Br1693   1.923       .  S
C1697      C1698   1.412       .  A
C1697      C1702   1.413       .  A
C1697      H1704   1.083       .  S
C1698      C1699   1.410       .  A
C1699      C1700   1.397       .  A
C1699     Br1706   1.921       .  S
C1700      C1701   1.406       .  A
C1700      H1705   1.084       .  S
C1701      C1702   1.410       .  A
C1702     Br1703   1.916       .  S
C1707      C1708   1.401       .  A
C1707      C1712   1.402       .  A
C1707      H1714   1.084   1_556  S
C1708      C1709   1.420       .  A
C1709      C1710   1.411       .  A
C1709     Br1716   1.914       .  S
C1710      C1711   1.402       .  A
C1710      H1715   1.083       .  S
C1711      C1712   1.417       .  A
C1712     Br1713   1.919       .  S
C1717      C1718   1.402       .  A
C1717      C1722   1.395       .  A
C1717      H1724   1.083       .  S
C1718      C1719   1.424       .  A
C1719      C1720   1.393       .  A
C1719     Br1726   1.925       .  S
C1720      C1721   1.394       .  A
C1720      H1725   1.084       .  S
C1721      C1722   1.412       .  A
C1722     Br1723   1.923       .  S
C1727      C1728   1.412       .  A
C1727      C1732   1.396       .  A
C1727      H1734   1.080       .  S
C1728      C1729   1.414       .  A
C1729      C1730   1.421       .  A
C1729     Br1736   1.916       .  S
C1730      C1731   1.419       .  A
C1730      H1735   1.083       .  S
C1731      C1732   1.412       .  A
C1732     Br1733   1.924       .  S
C1737      C1738   1.406       .  A
C1737      C1742   1.394       .  A
C1737      H1744   1.079       .  S
C1738      C1739   1.419       .  A
C1739      C1740   1.418       .  A
C1739     Br1746   1.918       .  S
C1740      C1741   1.414       .  A
C1740      H1745   1.083       .  S
C1741      C1742   1.411       .  A
C1742     Br1743   1.918       .  S
C1747      C1748   1.405       .  A
C1747      C1752   1.412       .  A
C1747      H1754   1.083       .  S
C1748      C1749   1.421       .  A
C1749      C1750   1.401       .  A
C1749     Br1756   1.925       .  S
C1750      C1751   1.403       .  A
C1750      H1755   1.083       .  S
C1751      C1752   1.422       .  A
C1752     Br1753   1.917       .  S
C1757      C1758   1.415       .  A
C1757      C1762   1.424       .  A
C1757      H1764   1.083       .  S
C1758      C1759   1.414       .  A
C1759      C1760   1.393       .  A
C1759     Br1766   1.923       .  S
C1760      C1761   1.401       .  A
C1760      H1765   1.073       .  S
C1761      C1762   1.422       .  A
C1762     Br1763   1.917       .  S
C1767      C1768   1.397       .  A
C1767      C1772   1.380       .  A
C1767      H1774   1.085       .  S
C1768      C1769   1.405       .  A
C1769      C1770   1.385       .  A
C1769     Br1776   1.921       .  S
C1770      C1771   1.401       .  A
C1770      H1775   1.082       .  S
C1771      C1772   1.412       .  A
C1772     Br1773   1.923       .  S
C1777      C1778   1.400       .  A
C1777      C1782   1.397       .  A
C1777      H1784   1.084       .  S
C1778      C1779   1.414       .  A
C1779      C1780   1.410       .  A
C1779     Br1786   1.917       .  S
C1780      C1781   1.405       .  A
C1780      H1785   1.083       .  S
C1781      C1782   1.413       .  A
C1782     Br1783   1.920       .  S
C1787      C1788   1.394       .  A
C1787      C1792   1.401       .  A
C1787      H1794   1.084       .  S
C1788      C1789   1.421       .  A
C1789      C1790   1.412       .  A
C1789     Br1796   1.900       .  S
C1790      C1791   1.399       .  A
C1790      H1795   1.083       .  S
C1791      C1792   1.420       .  A
C1792     Br1793   1.905       .  S
C1797      C1798   1.407       .  A
C1797      C1802   1.394       .  A
C1797      H1804   1.083       .  S
C1798      C1799   1.409       .  A
C1799      C1800   1.390       .  A
C1799     Br1806   1.924       .  S
C1800      C1801   1.409       .  A
C1800      H1805   1.083       .  S
C1801      C1802   1.411       .  A
C1802     Br1803   1.923       .  S
C1807      C1808   1.401       .  A
C1807      C1812   1.381       .  A
C1807      H1814   1.084       .  S
C1808      C1809   1.419       .  A
C1809      C1810   1.377       .  A
C1809     Br1816   1.929       .  S
C1810      C1811   1.391       .  A
C1810      H1815   1.085       .  S
C1811      C1812   1.404       .  A
C1812     Br1813   1.921       .  S
C1817      C1818   1.412       .  A
C1817      C1822   1.414       .  A
C1817      H1824   1.083       .  S
C1818      C1819   1.407       .  A
C1819      C1820   1.394       .  A
C1819     Br1826   1.923       .  S
C1820      C1821   1.408       .  A
C1820      H1825   1.084       .  S
C1821      C1822   1.409       .  A
C1822     Br1823   1.915       .  S
C1827      C1828   1.414       .  A
C1827      C1832   1.401       .  A
C1827      H1834   1.083       .  S
C1828      C1829   1.411       .  A
C1829      C1830   1.411       .  A
C1829     Br1836   1.918       .  S
C1830      C1831   1.413       .  A
C1830      H1835   1.081       .  S
C1831      C1832   1.408       .  A
C1832     Br1833   1.920       .  S
C1837      C1838   1.412       .  A
C1837      C1842   1.418       .  A
C1837      H1844   1.083       .  S
C1838      C1839   1.424       .  A
C1839      C1840   1.397       .  A
C1839     Br1846   1.925       .  S
C1840      C1841   1.403       .  A
C1840      H1845   1.083       .  S
C1841      C1842   1.422       .  A
C1842     Br1843   1.918       .  S
C1847      C1848   1.412       .  A
C1847      C1852   1.406       .  A
C1847      H1854   1.080       .  S
C1848      C1849   1.400       .  A
C1849      C1850   1.402       .  A
C1849     Br1856   1.917       .  S
C1850      C1851   1.411       .  A
C1850      H1855   1.077       .  S
C1851      C1852   1.403       .  A
C1852     Br1853   1.916   1_565  S
C1857      C1858   1.413       .  A
C1857      C1862   1.420       .  A
C1857      H1864   1.083       .  S
C1858      C1859   1.424       .  A
C1859      C1860   1.397       .  A
C1859     Br1866   1.924       .  S
C1860      C1861   1.403       .  A
C1860      H1865   1.083       .  S
C1861      C1862   1.419       .  A
C1862     Br1863   1.913   1_655  S
C1867      C1868   1.403       .  A
C1867      C1872   1.393       .  A
C1867      H1874   1.083       .  S
C1868      C1869   1.422       .  A
C1869      C1870   1.390       .  A
C1869     Br1876   1.927       .  S
C1870      C1871   1.396       .  A
C1870      H1875   1.084       .  S
C1871      C1872   1.411       .  A
C1872     Br1873   1.923       .  S
C1877      C1878   1.397       .  A
C1877      C1882   1.404       .  A
C1877      H1884   1.084       .  S
C1878      C1879   1.416       .  A
C1879      C1880   1.398       .  A
C1879     Br1886   1.914       .  S
C1880      C1881   1.397       .  A
C1880      H1885   1.084       .  S
C1881      C1882   1.424       .  A
C1882     Br1883   1.915       .  S
C1887      C1888   1.401       .  A
C1887      C1892   1.392       .  A
C1887      H1894   1.079       .  S
C1888      C1889   1.415       .  A
C1889      C1890   1.419       .  A
C1889     Br1896   1.914       .  S
C1890      C1891   1.415       .  A
C1890      H1895   1.083       .  S
C1891      C1892   1.417       .  A
C1892     Br1893   1.922       .  S
C1897      C1898   1.413       .  A
C1897      C1902   1.416       .  A
C1897      H1904   1.084       .  S
C1898      C1899   1.406       .  A
C1899      C1900   1.397       .  A
C1899     Br1906   1.920   1_655  S
C1900      C1901   1.409       .  A
C1900      H1905   1.083       .  S
C1901      C1902   1.411       .  A
C1902     Br1903   1.915       .  S
C1907      C1908   1.399   1_565  A
C1907      C1912   1.373       .  A
C1907      H1914   1.084   1_455  S
C1908      C1909   1.408       .  A
C1909      C1910   1.384   1_545  A
C1909     Br1916   1.912       .  S
C1910      C1911   1.392       .  A
C1910      H1915   1.084       .  S
C1911      C1912   1.401       .  A
C1912     Br1913   1.924   1_455  S
C1917      C1918   1.405       .  A
C1917      C1922   1.413       .  A
C1917      H1924   1.083       .  S
C1918      C1919   1.422       .  A
C1919      C1920   1.403       .  A
C1919     Br1926   1.924       .  S
C1920      C1921   1.401       .  A
C1920      H1925   1.083   1_545  S
C1921      C1922   1.423       .  A
C1922     Br1923   1.918       .  S
C1927      C1928   1.399       .  A
C1927      C1932   1.395   1_556  A
C1927      H1934   1.084       .  S
C1928      C1929   1.417       .  A
C1929      C1930   1.393   1_556  A
C1929     Br1936   1.923       .  S
C1930      C1931   1.400       .  A
C1930      H1935   1.083       .  S
C1931      C1932   1.420       .  A
C1932     Br1933   1.924       .  S
C1937      C1938   1.398       .  A
C1937      C1942   1.409       .  A
C1937      H1944   1.083       .  S
C1938      C1939   1.427       .  A
C1939      C1940   1.400       .  A
C1939     Br1946   1.921       .  S
C1940      C1941   1.397       .  A
C1940      H1945   1.084       .  S
C1941      C1942   1.423       .  A
C1942     Br1943   1.902       .  S
C1947      C1948   1.399       .  A
C1947      C1952   1.400       .  A
C1947      H1954   1.083       .  S
C1948      C1949   1.422       .  A
C1949      C1950   1.416       .  A
C1949     Br1956   1.904       .  S
C1950      C1951   1.406       .  A
C1950      H1955   1.083       .  S
C1951      C1952   1.428       .  A
C1952     Br1953   1.920       .  S
C1957      C1958   1.406   1_565  A
C1957      C1962   1.379       .  A
C1957      H1964   1.084       .  S
C1958      C1959   1.403       .  A
C1959      C1960   1.382       .  A
C1959     Br1966   1.923       .  S
C1960      C1961   1.405   1_545  A
C1960      H1965   1.082       .  S
C1961      C1962   1.403       .  A
C1962     Br1963   1.921       .  S
C1967      C1968   1.410       .  A
C1967      C1972   1.403       .  A
C1967      H1974   1.084       .  S
C1968      C1969   1.410       .  A
C1969      C1970   1.411       .  A
C1969     Br1976   1.918       .  S
C1970      C1971   1.412       .  A
C1970      H1975   1.084       .  S
C1971      C1972   1.408       .  A
C1972     Br1973   1.918   1_565  S
C1977      C1978   1.417       .  A
C1977      C1982   1.410       .  A
C1977      H1984   1.083       .  S
C1978      C1979   1.406       .  A
C1979      C1980   1.401       .  A
C1979     Br1986   1.919       .  S
C1980      C1981   1.414       .  A
C1980      H1985   1.084       .  S
C1981      C1982   1.407       .  A
C1982     Br1983   1.918       .  S
C1987      C1988   1.412       .  A
C1987      C1992   1.390       .  A
C1987      H1994   1.083       .  S
C1988      C1989   1.411       .  A
C1989      C1990   1.398       .  A
C1989     Br1996   1.920       .  S
C1990      C1991   1.408       .  A
C1990      H1995   1.084       .  S
C1991      C1992   1.405       .  A
C1992     Br1993   1.924       .  S
C1997      C1998   1.410       .  A
C1997      C2002   1.395   1_655  A
C1997      H2004   1.084       .  S
C1998      C1999   1.405       .  A
C1999      C2000   1.393       .  A
C1999     Br2006   1.922       .  S
C2000      C2001   1.413   1_655  A
C2000      H2005   1.083   1_655  S
C2001      C2002   1.410       .  A
C2002     Br2003   1.922       .  S
C2007      C2008   1.408       .  A
C2007      C2012   1.379       .  A
C2007      H2014   1.083       .  S
C2008      C2009   1.406       .  A
C2009      C2010   1.382       .  A
C2009     Br2016   1.922       .  S
C2010      C2011   1.404       .  A
C2010      H2015   1.084       .  S
C2011      C2012   1.400       .  A
C2012     Br2013   1.920       .  S
C2017      C2018   1.412       .  A
C2017      C2022   1.421       .  A
C2017      H2024   1.083       .  S
C2018      C2019   1.424       .  A
C2019      C2020   1.392       .  A
C2019     Br2026   1.923       .  S
C2020      C2021   1.401       .  A
C2020      H2025   1.083       .  S
C2021      C2022   1.422       .  A
C2022     Br2023   1.916       .  S
C2027      C2028   1.411       .  A
C2027      C2032   1.400       .  A
C2027      H2034   1.067       .  S
C2028      C2029   1.410       .  A
C2029      C2030   1.418       .  A
C2029     Br2036   1.915       .  S
C2030      C2031   1.417       .  A
C2030      H2035   1.081       .  S
C2031      C2032   1.400       .  A
C2032     Br2033   1.920       .  S
C2037      C2038   1.395       .  A
C2037      C2042   1.390       .  A
C2037      H2044   1.084       .  S
C2038      C2039   1.411   1_545  A
C2039      C2040   1.410   1_565  A
C2039     Br2046   1.916       .  S
C2040      C2041   1.407       .  A
C2040      H2045   1.083   1_545  S
C2041      C2042   1.413       .  A
C2042     Br2043   1.911       .  S
C2047      C2048   1.407       .  A
C2047      C2052   1.416       .  A
C2047      H2054   1.083       .  S
C2048      C2049   1.416       .  A
C2049      C2050   1.389       .  A
C2049     Br2056   1.913       .  S
C2050      C2051   1.399       .  A
C2050      H2055   1.083       .  S
C2051      C2052   1.422       .  A
C2052     Br2053   1.916       .  S
C2057      C2058   1.406       .  A
C2057      C2062   1.419       .  A
C2057      H2064   1.083   1_545  S
C2058      C2059   1.423       .  A
C2059      C2060   1.398       .  A
C2059     Br2066   1.903       .  S
C2060      C2061   1.392       .  A
C2060      H2065   1.084       .  S
C2061      C2062   1.421       .  A
C2062     Br2063   1.904       .  S
C2067      C2068   1.404       .  A
C2067      C2072   1.398       .  A
C2067      H2074   1.083       .  S
C2068      C2069   1.426       .  A
C2069      C2070   1.411       .  A
C2069     Br2076   1.922       .  S
C2070      C2071   1.402       .  A
C2070      H2075   1.083       .  S
C2071      C2072   1.415       .  A
C2072     Br2073   1.923       .  S
C2077      C2078   1.416       .  A
C2077      C2082   1.415       .  A
C2077      H2084   1.083       .  S
C2078      C2079   1.421       .  A
C2079      C2080   1.409       .  A
C2079     Br2086   1.921       .  S
C2080      C2081   1.406       .  A
C2080      H2085   1.083       .  S
C2081      C2082   1.409       .  A
C2082     Br2083   1.916       .  S
C2087      C2088   1.414       .  A
C2087      C2092   1.393       .  A
C2087      H2094   1.083       .  S
C2088      C2089   1.411   1_565  A
C2089      C2090   1.396       .  A
C2089     Br2096   1.921       .  S
C2090      C2091   1.405       .  A
C2090      H2095   1.084       .  S
C2091      C2092   1.400   1_545  A
C2092     Br2093   1.921       .  S
C2097      C2098   1.411       .  A
C2097      C2102   1.400       .  A
C2097      H2104   1.081       .  S
C2098      C2099   1.409       .  A
C2099      C2100   1.416       .  A
C2099     Br2106   1.915       .  S
C2100      C2101   1.415       .  A
C2100      H2105   1.084       .  S
C2101      C2102   1.402       .  A
C2102     Br2103   1.918   1_545  S
C2107      C2108   1.412       .  A
C2107      C2112   1.395       .  A
C2107      H2114   1.083       .  S
C2108      C2109   1.407       .  A
C2109      C2110   1.416       .  A
C2109     Br2116   1.916       .  S
C2110      C2111   1.417       .  A
C2110      H2115   1.083       .  S
C2111      C2112   1.404       .  A
C2112     Br2113   1.921       .  S
C2117      C2118   1.399       .  A
C2117      C2122   1.388       .  A
C2117      H2124   1.084       .  S
C2118      C2119   1.406       .  A
C2119      C2120   1.382       .  A
C2119     Br2126   1.922   1_565  S
C2120      C2121   1.397       .  A
C2120      H2125   1.085       .  S
C2121      C2122   1.403       .  A
C2122     Br2123   1.912       .  S
C2127      C2128   1.411       .  A
C2127      C2132   1.401       .  A
C2127      H2134   1.084       .  S
C2128      C2129   1.410       .  A
C2129      C2130   1.410       .  A
C2129     Br2136   1.918       .  S
C2130      C2131   1.414       .  A
C2130      H2135   1.083       .  S
C2131      C2132   1.411       .  A
C2132     Br2133   1.921       .  S
C2137      C2138   1.402       .  A
C2137      C2142   1.403       .  A
C2137      H2144   1.084       .  S
C2138      C2139   1.422       .  A
C2139      C2140   1.411       .  A
C2139     Br2146   1.915       .  S
C2140      C2141   1.404       .  A
C2140      H2145   1.083       .  S
C2141      C2142   1.422       .  A
C2142     Br2143   1.923       .  S
C2147      C2148   1.391       .  A
C2147      C2152   1.382   1_565  A
C2147      H2154   1.079       .  S
C2148      C2149   1.408       .  A
C2149      C2150   1.404   1_565  A
C2149     Br2156   1.917       .  S
C2150      C2151   1.405       .  A
C2150      H2155   1.083       .  S
C2151      C2152   1.413       .  A
C2152     Br2153   1.920       .  S
C2157      C2158   1.403       .  A
C2157      C2162   1.414       .  A
C2157      H2164   1.083       .  S
C2158      C2159   1.425       .  A
C2159      C2160   1.395       .  A
C2159     Br2166   1.910       .  S
C2160      C2161   1.391       .  A
C2160      H2165   1.084       .  S
C2161      C2162   1.421       .  A
C2162     Br2163   1.913       .  S
C2167      C2168   1.393       .  A
C2167      C2172   1.400       .  A
C2167      H2174   1.084       .  S
C2168      C2169   1.418       .  A
C2169      C2170   1.412       .  A
C2169     Br2176   1.901       .  S
C2170      C2171   1.401       .  A
C2170      H2175   1.083       .  S
C2171      C2172   1.419       .  A
C2172     Br2173   1.904       .  S
C2177      C2178   1.416       .  A
C2177      C2182   1.394       .  A
C2177      H2184   1.083       .  S
C2178      C2179   1.411       .  A
C2179      C2180   1.397       .  A
C2179     Br2186   1.921       .  S
C2180      C2181   1.407       .  A
C2180      H2185   1.084       .  S
C2181      C2182   1.398       .  A
C2182     Br2183   1.920       .  S
C2187      C2188   1.412       .  A
C2187      C2192   1.421       .  A
C2187      H2194   1.083       .  S
C2188      C2189   1.427       .  A
C2189      C2190   1.391       .  A
C2189     Br2196   1.921       .  S
C2190      C2191   1.398       .  A
C2190      H2195   1.084       .  S
C2191      C2192   1.422       .  A
C2192     Br2193   1.918       .  S
C2197      C2198   1.403       .  A
C2197      C2202   1.375       .  A
C2197      H2204   1.084       .  S
C2198      C2199   1.412       .  A
C2199      C2200   1.379       .  A
C2199     Br2206   1.927       .  S
C2200      C2201   1.399       .  A
C2200      H2205   1.084       .  S
C2201      C2202   1.402       .  A
C2202     Br2203   1.923       .  S
C2207      C2208   1.399   1_556  A
C2207      C2212   1.392       .  A
C2207      H2214   1.083       .  S
C2208      C2209   1.424       .  A
C2209      C2210   1.394       .  A
C2209     Br2216   1.926       .  S
C2210      C2211   1.396       .  A
C2210      H2215   1.084       .  S
C2211      C2212   1.417   1_554  A
C2212     Br2213   1.923       .  S
C2217      C2218   1.410       .  A
C2217      C2222   1.399       .  A
C2217      H2224   1.077       .  S
C2218      C2219   1.407       .  A
C2219      C2220   1.411       .  A
C2219     Br2226   1.915   1_554  S
C2220      C2221   1.413       .  A
C2220      H2225   1.082       .  S
C2221      C2222   1.400       .  A
C2222     Br2223   1.918       .  S
C2227      C2228   1.411       .  A
C2227      C2232   1.401       .  A
C2227      H2234   1.083       .  S
C2228      C2229   1.409       .  A
C2229      C2230   1.419       .  A
C2229     Br2236   1.910       .  S
C2230      C2231   1.418       .  A
C2230      H2235   1.083       .  S
C2231      C2232   1.413       .  A
C2232     Br2233   1.923       .  S
C2237      C2238   1.398       .  A
C2237      C2242   1.398       .  A
C2237      H2244   1.084       .  S
C2238      C2239   1.421       .  A
C2239      C2240   1.417       .  A
C2239     Br2246   1.914       .  S
C2240      C2241   1.405       .  A
C2240      H2245   1.083       .  S
C2241      C2242   1.414       .  A
C2242     Br2243   1.907       .  S
C2247      C2248   1.417       .  A
C2247      C2252   1.400       .  A
C2247      H2254   1.083       .  S
C2248      C2249   1.412       .  A
C2249      C2250   1.408       .  A
C2249     Br2256   1.919       .  S
C2250      C2251   1.415       .  A
C2250      H2255   1.083       .  S
C2251      C2252   1.409       .  A
C2252     Br2253   1.922       .  S
C2257      C2258   1.401   1_554  A
C2257      C2262   1.397       .  A
C2257      H2264   1.083       .  S
C2258      C2259   1.419       .  A
C2259      C2260   1.391       .  A
C2259     Br2266   1.924       .  S
C2260      C2261   1.399   1_556  A
C2260      H2265   1.083       .  S
C2261      C2262   1.418       .  A
C2262     Br2263   1.924       .  S
C2267      C2268   1.414       .  A
C2267      C2272   1.417       .  A
C2267      H2274   1.084       .  S
C2268      C2269   1.408       .  A
C2269      C2270   1.398       .  A
C2269     Br2276   1.921   1_554  S
C2270      C2271   1.410       .  A
C2270      H2275   1.084       .  S
C2271      C2272   1.412       .  A
C2272     Br2273   1.916       .  S
C2277      C2278   1.416       .  A
C2277      C2282   1.414       .  A
C2277      H2284   1.080       .  S
C2278      C2279   1.401       .  A
C2279      C2280   1.400       .  A
C2279     Br2286   1.919       .  S
C2280      C2281   1.410       .  A
C2280      H2285   1.072       .  S
C2281      C2282   1.407       .  A
C2282     Br2283   1.915       .  S
C2287      C2288   1.396       .  A
C2287      C2292   1.377       .  A
C2287      H2294   1.084       .  S
C2288      C2289   1.409       .  A
C2289      C2290   1.382       .  A
C2289     Br2296   1.924       .  S
C2290      C2291   1.400       .  A
C2290      H2295   1.084       .  S
C2291      C2292   1.413       .  A
C2292     Br2293   1.928       .  S
C2297      C2298   1.413       .  A
C2297      C2302   1.394       .  A
C2297      H2304   1.082       .  S
C2298      C2299   1.413       .  A
C2299      C2300   1.416       .  A
C2299     Br2306   1.917       .  S
C2300      C2301   1.417       .  A
C2300      H2305   1.083       .  S
C2301      C2302   1.413       .  A
C2302     Br2303   1.926       .  S
C2307      C2308   1.405       .  A
C2307      C2312   1.414       .  A
C2307      H2314   1.083       .  S
C2308      C2309   1.414       .  A
C2309      C2310   1.402       .  A
C2309     Br2316   1.919       .  S
C2310      C2311   1.401       .  A
C2310      H2315   1.084       .  S
C2311      C2312   1.416       .  A
C2312     Br2313   1.913       .  S
C2317      C2318   1.404       .  A
C2317      C2322   1.392   1_556  A
C2317      H2324   1.084       .  S
C2318      C2319   1.406       .  A
C2319      C2320   1.389   1_556  A
C2319     Br2326   1.923       .  S
C2320      C2321   1.408       .  A
C2320      H2325   1.083       .  S
C2321      C2322   1.413       .  A
C2322     Br2323   1.923       .  S
C2327      C2328   1.417       .  A
C2327      C2332   1.415       .  A
C2327      H2334   1.083       .  S
C2328      C2329   1.412       .  A
C2329      C2330   1.394       .  A
C2329     Br2336   1.924       .  S
C2330      C2331   1.409       .  A
C2330      H2335   1.083       .  S
C2331      C2332   1.410       .  A
C2332     Br2333   1.916       .  S
C2337      C2338   1.408       .  A
C2337      C2342   1.397       .  A
C2337      H2344   1.083       .  S
C2338      C2339   1.413       .  A
C2339      C2340   1.414       .  A
C2339     Br2346   1.915       .  S
C2340      C2341   1.414       .  A
C2340      H2345   1.083       .  S
C2341      C2342   1.418       .  A
C2342     Br2343   1.925       .  S
C2347      C2348   1.404       .  A
C2347      C2352   1.391       .  A
C2347      H2354   1.084       .  S
C2348      C2349   1.406       .  A
C2349      C2350   1.393       .  A
C2349     Br2356   1.922       .  S
C2350      C2351   1.410       .  A
C2350      H2355   1.083       .  S
C2351      C2352   1.413       .  A
C2352     Br2353   1.924       .  S
C2357      C2358   1.413       .  A
C2357      C2362   1.419       .  A
C2357      H2364   1.083       .  S
C2358      C2359   1.422       .  A
C2359      C2360   1.398       .  A
C2359     Br2366   1.928       .  S
C2360      C2361   1.407       .  A
C2360      H2365   1.084       .  S
C2361      C2362   1.420       .  A
C2362     Br2363   1.918       .  S
C2367      C2368   1.415       .  A
C2367      C2372   1.415       .  A
C2367      H2374   1.083       .  S
C2368      C2369   1.396       .  A
C2369      C2370   1.391       .  A
C2369     Br2376   1.923       .  S
C2370      C2371   1.409       .  A
C2370      H2375   1.068       .  S
C2371      C2372   1.410       .  A
C2372     Br2373   1.911       .  S
C2377      C2378   1.404       .  A
C2377      C2382   1.383       .  A
C2377      H2384   1.084       .  S
C2378      C2379   1.406       .  A
C2379      C2380   1.373       .  A
C2379     Br2386   1.924       .  S
C2380      C2381   1.401       .  A
C2380      H2385   1.084       .  S
C2381      C2382   1.401       .  A
C2382     Br2383   1.917       .  S
C2387      C2388   1.397       .  A
C2387      C2392   1.398       .  A
C2387      H2394   1.083       .  S
C2388      C2389   1.423   1_655  A
C2389      C2390   1.397       .  A
C2389     Br2396   1.926       .  S
C2390      C2391   1.398   1_455  A
C2390      H2395   1.083       .  S
C2391      C2392   1.424       .  A
C2392     Br2393   1.926       .  S
C2397      C2398   1.398   1_455  A
C2397      C2402   1.393       .  A
C2397      H2404   1.084   1_455  S
C2398      C2399   1.421   1_655  A
C2399      C2400   1.418       .  A
C2399     Br2406   1.915       .  S
C2400      C2401   1.410       .  A
C2400      H2405   1.083       .  S
C2401      C2402   1.424       .  A
C2402     Br2403   1.921       .  S
C2407      C2408   1.413       .  A
C2407      C2412   1.421       .  A
C2407      H2414   1.083       .  S
C2408      C2409   1.424       .  A
C2409      C2410   1.399       .  A
C2409     Br2416   1.921       .  S
C2410      C2411   1.404       .  A
C2410      H2415   1.083       .  S
C2411      C2412   1.422       .  A
C2412     Br2413   1.915       .  S
C2417      C2418   1.411       .  A
C2417      C2422   1.402       .  A
C2417      H2424   1.084       .  S
C2418      C2419   1.408       .  A
C2419      C2420   1.414       .  A
C2419     Br2426   1.916       .  S
C2420      C2421   1.415       .  A
C2420      H2425   1.083       .  S
C2421      C2422   1.410       .  A
C2422     Br2423   1.922       .  S
C2427      C2428   1.401       .  A
C2427      C2432   1.400       .  A
C2427      H2434   1.083       .  S
C2428      C2429   1.424       .  A
C2429      C2430   1.410       .  A
C2429     Br2436   1.922       .  S
C2430      C2431   1.402       .  A
C2430      H2435   1.083       .  S
C2431      C2432   1.417       .  A
C2432     Br2433   1.924       .  S
C2437      C2438   1.400   1_455  A
C2437      C2442   1.394       .  A
C2437      H2444   1.083       .  S
C2438      C2439   1.425       .  A
C2439      C2440   1.385       .  A
C2439     Br2446   1.928       .  S
C2440      C2441   1.388       .  A
C2440      H2445   1.085       .  S
C2441      C2442   1.410   1_655  A
C2442     Br2443   1.921       .  S
C2447      C2448   1.403       .  A
C2447      C2452   1.406       .  A
C2447      H2454   1.083       .  S
C2448      C2449   1.424       .  A
C2449      C2450   1.416       .  A
C2449     Br2456   1.899       .  S
C2450      C2451   1.404       .  A
C2450      H2455   1.084       .  S
C2451      C2452   1.429       .  A
C2452     Br2453   1.922       .  S
C2457      C2458   1.400       .  A
C2457      C2462   1.396       .  A
C2457      H2464   1.085       .  S
C2458      C2459   1.419       .  A
C2459      C2460   1.418       .  A
C2459     Br2466   1.900       .  S
C2460      C2461   1.411       .  A
C2460      H2465   1.083       .  S
C2461      C2462   1.422       .  A
C2462     Br2463   1.907       .  S
C2467      C2468   1.392       .  A
C2467      C2472   1.381       .  A
C2467      H2474   1.084       .  S
C2468      C2469   1.406       .  A
C2469      C2470   1.376       .  A
C2469     Br2476   1.923       .  S
C2470      C2471   1.398       .  A
C2470      H2475   1.084       .  S
C2471      C2472   1.406       .  A
C2472     Br2473   1.914       .  S
C2477      C2478   1.402       .  A
C2477      C2482   1.402       .  A
C2477      H2484   1.083       .  S
C2478      C2479   1.423       .  A
C2479      C2480   1.407       .  A
C2479     Br2486   1.914       .  S
C2480      C2481   1.399       .  A
C2480      H2485   1.084       .  S
C2481      C2482   1.417       .  A
C2482     Br2483   1.921       .  S
C2487      C2488   1.407       .  A
C2487      C2492   1.407       .  A
C2487      H2494   1.083       .  S
C2488      C2489   1.411       .  A
C2489      C2490   1.407       .  A
C2489     Br2496   1.916       .  S
C2490      C2491   1.406       .  A
C2490      H2495   1.084       .  S
C2491      C2492   1.409       .  A
C2492     Br2493   1.917       .  S
