geometry optimzed in LAMMPS
_audit_creation_date              2020-12-01 
_audit_creation_method            'lammps2cif' 
_symmetry_space_group_name_H-M    'P1' 
_symmetry_Int_Tables_number       1 
_symmetry_cell_setting            triclinic 
loop_ 
_symmetry_equiv_pos_as_xyz 
  x,y,z 
_cell_length_a                    80.5050028 
_cell_length_b                    80.51295194109824 
_cell_length_c                    80.50096525801575 
_cell_angle_alpha                 90.05953275034783 
_cell_angle_beta                  89.97384570039297 
_cell_angle_gamma                 89.93091271627455 
loop_ 
_atom_site_label 
_atom_site_type_symbol 
_atom_site_fract_x 
_atom_site_fract_y 
_atom_site_fract_z 
_atom_site_charge 
C1          C  0.84636945  0.74993983  0.65522738     0.03500
C2          C  0.84623481  0.73706728  0.66706829    -0.12700
C3          C  0.83369442  0.73610017  0.67923705     0.01000
C4          C  0.82115275  0.74834650  0.67948277    -0.11200
C5          C  0.82106870  0.76139517  0.66783768     0.03500
C6          C  0.83374492  0.76208047  0.65579910    -0.10600
H7          H  0.85564325  0.72745163  0.66651557     0.09100
H8          H  0.81165047  0.74796970  0.68900716     0.06600
H9          H  0.83374459  0.77209414  0.64681476     0.06400
C10         C  0.84779417  0.65790599  0.74059489     0.03500
C11         C  0.84726621  0.67031343  0.72824012    -0.12700
C12         C  0.83461283  0.68244063  0.72809136     0.01000
C13         C  0.82200471  0.68165581  0.74020909    -0.11200
C14         C  0.82213129  0.66929224  0.75256892     0.03500
C15         C  0.83514701  0.65760112  0.75272082    -0.10600
H16         H  0.85653798  0.67037712  0.71850026     0.09100
H17         H  0.81230735  0.69099812  0.74031836     0.06600
H18         H  0.83539459  0.64820135  0.76233851     0.06400
C19         C  0.75821236  0.65620735  0.82877886     0.03500
C20         C  0.77072447  0.65621460  0.81655523    -0.12700
C21         C  0.77071774  0.66814407  0.80374057     0.01000
C22         C  0.75777027  0.67993201  0.80317141    -0.11200
C23         C  0.74516128  0.68016394  0.81532579     0.03500
C24         C  0.74555677  0.66822991  0.82809535    -0.10600
H25         H  0.78040963  0.64686878  0.81699222     0.09100
H26         H  0.75750671  0.68894076  0.79319084     0.06600
H27         H  0.73596617  0.66825392  0.83754742     0.06400
C28         C  0.66680369  0.74090535  0.82839034     0.03500
C29         C  0.66697223  0.75407352  0.81687508    -0.12700
C30         C  0.67908528  0.75492658  0.80427664     0.01000
C31         C  0.69131861  0.74241143  0.80342598    -0.11200
C32         C  0.69153013  0.72915378  0.81485076     0.03500
C33         C  0.67920117  0.72858058  0.82726634    -0.10600
H34         H  0.65776215  0.76384031  0.81782310     0.09100
H35         H  0.70087399  0.74312414  0.79398177     0.06600
H36         H  0.67940065  0.71862704  0.83629338     0.06400
C37         C  0.66905757  0.83664825  0.74673364     0.03500
C38         C  0.66917271  0.82393535  0.75880649    -0.12700
C39         C  0.68093712  0.81097452  0.75823473     0.01000
C40         C  0.69316985  0.81121481  0.74573310    -0.11200
C41         C  0.69375956  0.82404005  0.73389283     0.03500
C42         C  0.68149375  0.83650761  0.73436091    -0.10600
H43         H  0.65995002  0.82394226  0.76856842     0.09100
H44         H  0.70223528  0.80128079  0.74516003     0.06600
H45         H  0.68164436  0.84610205  0.72495262     0.06400
C46         C  0.75874614  0.83907357  0.65906889     0.03500
C47         C  0.77102260  0.82655967  0.65911118    -0.12700
C48         C  0.77050917  0.81335715  0.67053163     0.01000
C49         C  0.75751012  0.81280506  0.68220884    -0.11200
C50         C  0.74524674  0.82533010  0.68271480     0.03500
C51         C  0.74599757  0.83839707  0.67106221    -0.10600
H52         H  0.78093683  0.82693621  0.65001532     0.09100
H53         H  0.75699410  0.80262393  0.69098581     0.06600
H54         H  0.73652736  0.84794865  0.67122202     0.06400
N55         N  0.42319887  0.96204462  0.73885076    -0.26900
N56         N  0.43888922  0.96489771  0.74258340    -0.34800
C57         C  0.44206884  0.98114721  0.74127889     0.01400
C58         C  0.42765204  0.98916276  0.73668055     0.07400
C59         C  0.41579197  0.97670494  0.73526921    -0.05700
H60         H  0.45425584  0.98661919  0.74271623     0.08100
H61         H  0.40317000  0.97804312  0.73086101     0.09300
Cu62       Cu  0.45607526  0.94653787  0.74646977     0.44200
Cu63       Cu  0.41480669  0.93755315  0.73723794     0.42000
Cu64       Cu  0.44761276  0.90374221  0.74060108     0.43900
N65         N  0.47440610  0.92897316  0.74469178    -0.34300
N66         N  0.47189248  0.91295151  0.74226084    -0.28600
C67         C  0.48679057  0.90555628  0.73969351    -0.04700
C68         C  0.49900593  0.91773754  0.74037436     0.07500
C69         C  0.49062650  0.93231754  0.74355122     0.01300
H70         H  0.48847752  0.89262833  0.73642426     0.09000
H71         H  0.49584461  0.94468619  0.74411043     0.08100
N72         N  0.42182723  0.90006316  0.73938801    -0.35800
N73         N  0.41051890  0.91193464  0.73789627    -0.28000
C74         C  0.39534552  0.90499172  0.73773604    -0.03200
C75         C  0.39687783  0.88785939  0.73944172     0.05400
C76         C  0.41397982  0.88531761  0.74034240     0.03500
H77         H  0.38413904  0.91222193  0.73647675     0.08600
H78         H  0.42038495  0.87361612  0.74188751     0.07400
N79         N  0.59147873  0.96161792  0.73067000    -0.26900
N80         N  0.57658254  0.96243287  0.72388470    -0.34800
C81         C  0.57327381  0.97813050  0.71952725     0.01400
C82         C  0.58666921  0.98801786  0.72373044     0.07400
C83         C  0.59810826  0.97710201  0.73080842    -0.05700
H84         H  0.56159536  0.98210322  0.71421186     0.08100
H85         H  0.61012664  0.98022634  0.73592801     0.09300
Cu86       Cu  0.56009461  0.94289319  0.72299541     0.44200
Cu87       Cu  0.60028569  0.93856171  0.73918932     0.42000
Cu88       Cu  0.56784132  0.90453225  0.74259422     0.43900
N89         N  0.54147061  0.92639856  0.72890041    -0.34300
N90         N  0.54382414  0.91221919  0.73677870    -0.28600
C91         C  0.52886364  0.90592834  0.74110971    -0.04700
C92         C  0.51667693  0.91690218  0.73574622     0.07500
C93         C  0.52518818  0.92964814  0.72810191     0.01300
H94         H  0.52708387  0.89501412  0.74873030     0.09000
H95         H  0.51999071  0.94110557  0.72337201     0.08100
N96         N  0.59350407  0.90130720  0.74446814    -0.35800
N97         N  0.60486055  0.91316802  0.74346796    -0.28000
C98         C  0.62001847  0.90611360  0.74428113    -0.03200
C99         C  0.61829799  0.88895065  0.74563155     0.05400
C100        C  0.60120917  0.88652721  0.74582586     0.03500
H101        H  0.63138758  0.91317937  0.74373884     0.08600
H102        H  0.59470453  0.87479869  0.74632091     0.07400
N103        N  0.42231806  0.03384352  0.73186963    -0.26900
N104        N  0.43659254  0.03123749  0.72422128    -0.34800
C105        C  0.43977980  0.01492262  0.72379549     0.01400
C106        C  0.42686906  0.00664370  0.73141551     0.07400
C107        C  0.41589036  0.01900789  0.73640464    -0.05700
H108        H  0.45131646  0.00956734  0.71941775     0.08100
H109        H  0.40489483  0.01745103  0.74397236     0.09300
Cu110      Cu  0.45320638  0.04970010  0.71828825     0.44200
Cu111      Cu  0.41471061  0.05806344  0.73720880     0.42000
Cu112      Cu  0.44809193  0.09081600  0.73252519     0.43900
N113        N  0.47261201  0.06626785  0.71950536    -0.34300
N114        N  0.47150061  0.08145719  0.72559409    -0.28600
C115        C  0.48701435  0.08796250  0.72643230    -0.04700
C116        C  0.49823404  0.07614030  0.72053256     0.07500
C117        C  0.48851584  0.06265954  0.71627152     0.01300
H118        H  0.48993814  0.10015410  0.73126369     0.09000
H119        H  0.49271063  0.05071814  0.71174888     0.08100
N120        N  0.42262352  0.09528843  0.73666570    -0.35800
N121        N  0.41103043  0.08374937  0.73849211    -0.28000
C122        C  0.39615310  0.09120806  0.74027609    -0.03200
C123        C  0.39824289  0.10831036  0.73939645     0.05400
C124        C  0.41526344  0.11032989  0.73719038     0.03500
H125        H  0.38469302  0.08448025  0.74205651     0.08600
H126        H  0.42183629  0.12192497  0.73559082     0.07400
N127        N  0.59274448  0.03348261  0.72339054    -0.26900
N128        N  0.57795298  0.03174709  0.71655845    -0.34800
C129        C  0.57417024  0.01562179  0.71531077     0.01400
C130        C  0.58711878  0.00635054  0.72167774     0.07400
C131        C  0.59885114  0.01810272  0.72667999    -0.05700
H132        H  0.56234058  0.01106951  0.71088126     0.08100
H133        H  0.61054810  0.01567081  0.73282586     0.09300
Cu134      Cu  0.56167253  0.05091126  0.71236825     0.44200
Cu135      Cu  0.60144729  0.05769591  0.72853970     0.42000
Cu136      Cu  0.56751254  0.09096734  0.72813644     0.43900
N137        N  0.54222356  0.06704564  0.71584024    -0.34300
N138        N  0.54363509  0.08196548  0.72247390    -0.28600
C139        C  0.52814419  0.08816148  0.72493706    -0.04700
C140        C  0.51664137  0.07636330  0.71958345     0.07500
C141        C  0.52616912  0.06325645  0.71391532     0.01300
H142        H  0.52544995  0.10003243  0.73064355     0.09000
H143        H  0.52180343  0.05140308  0.70935421     0.08100
N144        N  0.59318122  0.09510815  0.73137258    -0.35800
N145        N  0.60498174  0.08358751  0.73157237    -0.28000
C146        C  0.61978871  0.09114884  0.73368995    -0.03200
C147        C  0.61744100  0.10829581  0.73478811     0.05400
C148        C  0.60030643  0.11014479  0.73329106     0.03500
H149        H  0.63136041  0.08441445  0.73447353     0.08600
H150        H  0.59340747  0.12167216  0.73327863     0.07400
N151        N  0.47004942  0.75143664  0.07589274    -0.26900
N152        N  0.47328734  0.75709428  0.06084899    -0.34800
C153        C  0.48951137  0.75526047  0.05756747     0.01400
C154        C  0.49712335  0.74834357  0.07126813     0.07400
C155        C  0.48442641  0.74605907  0.08276386    -0.05700
H156        H  0.49522295  0.75802458  0.04571873     0.08100
H157        H  0.48538347  0.73997741  0.09470148     0.09300
Cu158      Cu  0.45532081  0.76423325  0.04415582     0.44200
Cu159      Cu  0.44541826  0.75004228  0.08429189     0.42000
Cu160      Cu  0.41252135  0.75711814  0.05163104     0.43900
N161        N  0.43810869  0.76312761  0.02534728    -0.34300
N162        N  0.42216262  0.75993353  0.02749518    -0.28600
C163        C  0.41532582  0.75682349  0.01243009    -0.04700
C164        C  0.42776630  0.75794822  0.00046109     0.07500
C165        C  0.44192217  0.76199074  0.00919644     0.01300
H166        H  0.40272867  0.75257366  0.01051338     0.09000
H167        H  0.45443402  0.76269994  0.00433188     0.08100
N168        N  0.40812821  0.75375083  0.07722336    -0.35800
N169        N  0.41970709  0.75103140  0.08861471    -0.28000
C170        C  0.41232305  0.74950887  0.10356634    -0.03200
C171        C  0.39525668  0.75130659  0.10171562     0.05400
C172        C  0.39316657  0.75406942  0.08476890     0.03500
H173        H  0.41898950  0.74724408  0.11500287     0.08600
H174        H  0.38167512  0.75656233  0.07830758     0.07400
N175        N  0.59014813  0.73382220  0.02783235    -0.26900
N176        N  0.57504803  0.72753118  0.02667372    -0.34800
C177        C  0.57211083  0.72295451  0.01097057     0.01400
C178        C  0.58589021  0.72661680  0.00142070     0.07400
C179        C  0.59722131  0.73349909  0.01254299    -0.05700
H180        H  0.56032809  0.71813858  0.00670218     0.08100
H181        H  0.60940645  0.73835269  0.00965107     0.09300
Cu182      Cu  0.55744056  0.72801584  0.04525564     0.44200
Cu183      Cu  0.59886357  0.74265870  0.05080786     0.42000
Cu184      Cu  0.56613218  0.74512167  0.08435031     0.43900
N185        N  0.53882342  0.73446474  0.06162924    -0.34300
N186        N  0.54163385  0.74107161  0.07637644    -0.28600
C187        C  0.52692752  0.74590783  0.08296571    -0.04700
C188        C  0.51442424  0.74225302  0.07162245     0.07500
C189        C  0.52251623  0.73510521  0.05827701     0.01300
H190        H  0.52559547  0.75282737  0.09441552     0.09000
H191        H  0.51707313  0.73166677  0.04647620     0.08100
N192        N  0.59186437  0.74789042  0.08793308    -0.35800
N193        N  0.60333993  0.74742185  0.07613014    -0.28000
C194        C  0.61840882  0.74913754  0.08323715    -0.03200
C195        C  0.61655443  0.75068452  0.10037510     0.05400
C196        C  0.59943274  0.74978886  0.10274429     0.03500
H197        H  0.62993193  0.74890774  0.07634177     0.08600
H198        H  0.59278290  0.74982210  0.11439131     0.07400
N199        N  0.59205931  0.72826481  0.95612268    -0.26900
N200        N  0.57715398  0.72160642  0.95747881    -0.34800
C201        C  0.57344450  0.71935487  0.97350961     0.01400
C202        C  0.58651422  0.72497746  0.98307946     0.07400
C203        C  0.59827621  0.73050725  0.97162438    -0.05700
H204        H  0.56151193  0.71498517  0.97784466     0.08100
H205        H  0.61000662  0.73644338  0.97436985     0.09300
Cu206      Cu  0.56053087  0.71942209  0.93825178     0.44200
Cu207      Cu  0.60088282  0.73462965  0.93236873     0.42000
Cu208      Cu  0.56720294  0.73573937  0.89877123     0.43900
N209        N  0.54129776  0.72395465  0.92209353    -0.34300
N210        N  0.54307551  0.73069225  0.90727495    -0.28600
C211        C  0.52775090  0.73368712  0.90092566    -0.04700
C212        C  0.51595530  0.72861289  0.91255606     0.07500
C213        C  0.52515050  0.72252148  0.92569506     0.01300
H214        H  0.52538597  0.73971142  0.88915543     0.09000
H215        H  0.52050018  0.71799743  0.93745240     0.08100
N216        N  0.59300127  0.73754938  0.89499348    -0.35800
N217        N  0.60469706  0.73735693  0.90659765    -0.28000
C218        C  0.61966860  0.73821896  0.89912233    -0.03200
C219        C  0.61750392  0.73880082  0.88195423     0.05400
C220        C  0.60034275  0.73843190  0.87998291     0.03500
H221        H  0.63122460  0.73836084  0.90591417     0.08600
H222        H  0.59354019  0.73836826  0.86841022     0.07400
N223        N  0.42319238  0.75014436  0.95586407    -0.26900
N224        N  0.43773177  0.74326907  0.95902737    -0.34800
C225        C  0.44097349  0.74442690  0.97531124     0.01400
C226        C  0.42775506  0.75223156  0.98301755     0.07400
C227        C  0.41657004  0.75566099  0.97031640    -0.05700
H228        H  0.45251314  0.74056077  0.98101857     0.08100
H229        H  0.40510960  0.76261566  0.97133466     0.09300
Cu230      Cu  0.45372849  0.73505224  0.94079680     0.44200
Cu231      Cu  0.41550373  0.75283310  0.93120759     0.42000
Cu232      Cu  0.44785162  0.74367482  0.89789117     0.43900
N233        N  0.47232252  0.73255885  0.92340792    -0.34300
N234        N  0.47109224  0.73658815  0.90755814    -0.28600
C235        C  0.48644676  0.73561624  0.90064629    -0.04700
C236        C  0.49764437  0.73065741  0.91289896     0.07500
C237        C  0.48809212  0.72881215  0.92701835     0.01300
H238        H  0.48929421  0.73859487  0.88785850     0.09000
H239        H  0.49238620  0.72578553  0.93937695     0.08100
N240        N  0.42253652  0.74906476  0.89382057    -0.35800
N241        N  0.41143021  0.75246245  0.90551880    -0.28000
C242        C  0.39644827  0.75447469  0.89838644    -0.03200
C243        C  0.39788556  0.75199797  0.88136894     0.05400
C244        C  0.41471235  0.74875948  0.87900767     0.03500
H245        H  0.38533699  0.75736273  0.90533009     0.08600
H246        H  0.42078452  0.74574103  0.86740309     0.07400
C247        C  0.34518237  0.83717141  0.74189915     0.03500
C248        C  0.33237457  0.83781921  0.73008085    -0.12700
C249        C  0.31964383  0.82588640  0.72997039     0.01000
C250        C  0.31976193  0.81326695  0.74206463    -0.11200
C251        C  0.33231438  0.81259256  0.75424058     0.03500
C252        C  0.34505139  0.82455906  0.75394009    -0.10600
H253        H  0.33238771  0.84761727  0.72085783     0.09100
H254        H  0.31029723  0.80372363  0.74174437     0.06600
H255        H  0.35467894  0.82430889  0.76333675     0.06400
C256        C  0.34629660  0.74979137  0.83033753     0.03500
C257        C  0.33409618  0.73723452  0.83048464    -0.12700
C258        C  0.32145866  0.73681640  0.81836981     0.01000
C259        C  0.32117749  0.74914727  0.80599726    -0.11200
C260        C  0.33327322  0.76171760  0.80557811     0.03500
C261        C  0.34557053  0.76207629  0.81795436    -0.10600
H262        H  0.33437788  0.72783649  0.84009833     0.09100
H263        H  0.31169933  0.74876061  0.79645003     0.06600
H264        H  0.35440829  0.77220026  0.81812752     0.06400
C265        C  0.25826612  0.66063930  0.83028082     0.03500
C266        C  0.27023738  0.67331212  0.83036597    -0.12700
C267        C  0.27004027  0.68591554  0.81830905     0.01000
C268        C  0.25756123  0.68572139  0.80605053    -0.11200
C269        C  0.24538616  0.67315145  0.80573433     0.03500
C270        C  0.24597377  0.66054552  0.81785713    -0.10600
H271        H  0.27981723  0.67329815  0.83981833     0.09100
H272        H  0.25738822  0.69532814  0.79664236     0.06600
H273        H  0.23693461  0.65059089  0.81760444     0.06400
C274        C  0.17053887  0.66119418  0.74045414     0.03500
C275        C  0.17081991  0.67371032  0.72822333    -0.12700
C276        C  0.18293779  0.68631876  0.72847152     0.01000
C277        C  0.19494608  0.68625434  0.74119775    -0.11200
C278        C  0.19506633  0.67377024  0.75346718     0.03500
C279        C  0.18273167  0.66139623  0.75300702    -0.10600
H280        H  0.16181280  0.67346027  0.71823612     0.09100
H281        H  0.20400261  0.69617509  0.74175955     0.06600
H282        H  0.18268046  0.65180753  0.76243791     0.06400
C283        C  0.16850260  0.75235282  0.65450343     0.03500
C284        C  0.18080356  0.76473909  0.65484301    -0.12700
C285        C  0.19380920  0.76421437  0.66645585     0.01000
C286        C  0.19419726  0.75129516  0.67824761    -0.11200
C287        C  0.18169719  0.73903049  0.67857063     0.03500
C288        C  0.16902523  0.73961212  0.66648738    -0.10600
H289        H  0.18033778  0.77482967  0.64596233     0.09100
H290        H  0.20400210  0.75106307  0.68745932     0.06600
H291        H  0.15973043  0.72990259  0.66617041     0.06400
C292        C  0.25688463  0.84081242  0.65348583     0.03500
C293        C  0.24437181  0.82856096  0.65356568    -0.12700
C294        C  0.24430418  0.81587171  0.66559881     0.01000
C295        C  0.25680005  0.81560505  0.67776973    -0.11200
C296        C  0.26923169  0.82784297  0.67815096     0.03500
C297        C  0.26914778  0.84039674  0.66597521    -0.10600
H298        H  0.23465730  0.82886326  0.64427336     0.09100
H299        H  0.25680944  0.80583317  0.68702139     0.06600
H300        H  0.27868435  0.84987362  0.66620774     0.06400
N301        N  0.76595787  0.46162510  0.90931447    -0.26900
N302        N  0.77509675  0.46243854  0.92288944    -0.34800
C303        C  0.77881247  0.47828896  0.92619072     0.01400
C304        C  0.77170276  0.48822577  0.91416843     0.07400
C305        C  0.76365792  0.47724138  0.90349664    -0.05700
H306        H  0.78544308  0.48230859  0.93716017     0.08100
H307        H  0.75607662  0.48041179  0.89286830     0.09300
Cu308      Cu  0.77916340  0.44278659  0.93863141     0.44200
Cu309      Cu  0.75698969  0.43849826  0.90153102     0.42000
Cu310      Cu  0.75885154  0.40476453  0.93471631     0.43900
N311        N  0.77553679  0.42735105  0.95860785    -0.34300
N312        N  0.76708127  0.41333861  0.95802254    -0.28600
C313        C  0.76483061  0.40787916  0.97381512    -0.04700
C314        C  0.77220452  0.41924179  0.98464607     0.07500
C315        C  0.77885715  0.43127223  0.97440732     0.01300
H316        H  0.75773143  0.39699456  0.97719362     0.09000
H317        H  0.78492758  0.44264698  0.97816011     0.08100
N318        N  0.75516078  0.40108782  0.90901415    -0.35800
N319        N  0.75422807  0.41289347  0.89756366    -0.28000
C320        C  0.75317762  0.40571797  0.88247610    -0.03200
C321        C  0.75356117  0.38855910  0.88425370     0.05400
C322        C  0.75481368  0.38619061  0.90134140     0.03500
H323        H  0.75273364  0.41261818  0.87096878     0.08600
H324        H  0.75631698  0.37453624  0.90780937     0.07400
N325        N  0.76726532  0.53345607  0.90981295    -0.26900
N326        N  0.77341321  0.53200621  0.92492065    -0.34800
C327        C  0.77610711  0.51596607  0.92833884     0.01400
C328        C  0.77135830  0.50658315  0.91477296     0.07400
C329        C  0.76575265  0.51808183  0.90314701    -0.05700
H330        H  0.78060055  0.51146333  0.94016863     0.08100
H331        H  0.76080965  0.51546763  0.89092976     0.09300
Cu332      Cu  0.77572817  0.55158239  0.94112719     0.44200
Cu333      Cu  0.76155602  0.55715895  0.90082511     0.42000
Cu334      Cu  0.76088900  0.59214667  0.93288332     0.43900
N335        N  0.77260491  0.56915014  0.95937261    -0.34300
N336        N  0.76643797  0.58418605  0.95718037    -0.28600
C337        C  0.76466493  0.59143318  0.97232175    -0.04700
C338        C  0.77003732  0.58021318  0.98438896     0.07500
C339        C  0.77495567  0.56635729  0.97554961     0.01300
H340        H  0.75961406  0.60371553  0.97440967     0.09000
H341        H  0.77940601  0.55469125  0.98048876     0.08100
N342        N  0.75865766  0.59483170  0.90688779    -0.35800
N343        N  0.75905901  0.58260460  0.89584913    -0.28000
C344        C  0.75842439  0.58913435  0.88047357    -0.03200
C345        C  0.75746038  0.60636654  0.88157571     0.05400
C346        C  0.75763684  0.60937585  0.89864541     0.03500
H347        H  0.75923666  0.58163128  0.86939758     0.08600
H348        H  0.75736157  0.62132438  0.90476814     0.07400
N349        N  0.76572160  0.46664176  0.07825424    -0.26900
N350        N  0.77267812  0.46816367  0.06349150    -0.34800
C351        C  0.77555919  0.48419997  0.06034755     0.01400
C352        C  0.77008909  0.49355533  0.07367349     0.07400
C353        C  0.76389176  0.48199735  0.08494057    -0.05700
H354        H  0.78065631  0.48870787  0.04877355     0.08100
H355        H  0.75820427  0.48456639  0.09684784     0.09300
Cu356      Cu  0.77583842  0.44903141  0.04680015     0.44200
Cu357      Cu  0.75942463  0.44294636  0.08683946     0.42000
Cu358      Cu  0.76285371  0.40831566  0.05451790     0.43900
N359        N  0.77368656  0.43171761  0.02808522    -0.34300
N360        N  0.76819365  0.41643849  0.03024822    -0.28600
C361        C  0.76680890  0.40909832  0.01512627    -0.04700
C362        C  0.77178100  0.42047167  0.00305070     0.07500
C363        C  0.77602998  0.43457220  0.01187964     0.01300
H364        H  0.76237977  0.39658741  0.01305957     0.09000
H365        H  0.78000879  0.44637886  0.00688044     0.08100
N366        N  0.75918144  0.40528717  0.08028885    -0.35800
N367        N  0.75767945  0.41737129  0.09141213    -0.28000
C368        C  0.75569025  0.41058640  0.10657352    -0.03200
C369        C  0.75607403  0.39339198  0.10516956     0.05400
C370        C  0.75824716  0.39059398  0.08825220     0.03500
H371        H  0.75401520  0.41782677  0.11775284     0.08600
H372        H  0.75940558  0.37868429  0.08213330     0.07400
N373        N  0.76497217  0.53868935  0.07913963    -0.26900
N374        N  0.77277431  0.53759831  0.06477794    -0.34800
C375        C  0.77610432  0.52171211  0.06133524     0.01400
C376        C  0.77011324  0.51194540  0.07406614     0.07400
C377        C  0.76311942  0.52313367  0.08532842    -0.05700
H378        H  0.78175190  0.51758500  0.04986118     0.08100
H379        H  0.75668144  0.52015494  0.09673918     0.09300
Cu380      Cu  0.77588712  0.55696281  0.04859968     0.44200
Cu381      Cu  0.75734260  0.56228646  0.08718821     0.42000
Cu382      Cu  0.75851586  0.59594013  0.05299189     0.43900
N383        N  0.77278658  0.57250746  0.02870633    -0.34300
N384        N  0.76549501  0.58715020  0.02946379    -0.28600
C385        C  0.76363639  0.59295176  0.01374357    -0.04700
C386        C  0.77008411  0.58112871  0.00279456     0.07500
C387        C  0.77575390  0.56848159  0.01289045     0.01300
H388        H  0.75758924  0.60450964  0.01051158     0.09000
H389        H  0.78102899  0.55672955  0.00906710     0.08100
N390        N  0.75552685  0.59964694  0.07869265    -0.35800
N391        N  0.75483679  0.58809753  0.09042857    -0.28000
C392        C  0.75368954  0.59566640  0.10531981    -0.03200
C393        C  0.75373624  0.61278692  0.10307858     0.05400
C394        C  0.75497137  0.61470915  0.08595445     0.03500
H395        H  0.75322223  0.58905239  0.11699004     0.08600
H396        H  0.75614287  0.62616118  0.07909289     0.07400
N397        N  0.04378226  0.41503864  0.75178724    -0.26900
N398        N  0.04270803  0.42924522  0.75990006    -0.34800
C399        C  0.02679891  0.43231229  0.76373962     0.01400
C400        C  0.01712523  0.41949481  0.75766520     0.07400
C401        C  0.02832079  0.40865828  0.75013794    -0.05700
H402        H  0.02253342  0.44355947  0.76974558     0.08100
H403        H  0.02540110  0.39730747  0.74356532     0.09300
Cu404      Cu  0.06234187  0.44538818  0.76260381     0.44200
Cu405      Cu  0.06699122  0.40678092  0.74336631     0.42000
Cu406      Cu  0.10095503  0.43924378  0.74208475     0.43900
N407        N  0.07928229  0.46417090  0.75895940    -0.34300
N408        N  0.09336166  0.46271959  0.75065761    -0.28600
C409        C  0.10016776  0.47804018  0.74909215    -0.04700
C410        C  0.08970301  0.48948104  0.75683758     0.07500
C411        C  0.07670916  0.48010382  0.76291288     0.01300
H412        H  0.11157241  0.48069971  0.74250499     0.09000
H413        H  0.06568647  0.48457282  0.76917039     0.08100
N414        N  0.10416764  0.41357025  0.73825853    -0.35800
N415        N  0.09228292  0.40221167  0.73895153    -0.28000
C416        C  0.09922816  0.38703248  0.73759629    -0.03200
C417        C  0.11634838  0.38868663  0.73585520     0.05400
C418        C  0.11887534  0.40579374  0.73631346     0.03500
H419        H  0.09222031  0.37565936  0.73868582     0.08600
H420        H  0.13063459  0.41223559  0.73577959     0.07400
N421        N  0.04746792  0.58327552  0.75284934    -0.26900
N422        N  0.04633854  0.56943400  0.76154287    -0.34800
C423        C  0.03036462  0.56625849  0.76485231     0.01400
C424        C  0.02065664  0.57860931  0.75790415     0.07400
C425        C  0.03194430  0.58934529  0.75039459    -0.05700
H426        H  0.02611006  0.55516995  0.77110902     0.08100
H427        H  0.02905218  0.60022477  0.74306756     0.09300
Cu428      Cu  0.06583037  0.55329495  0.76558652     0.44200
Cu429      Cu  0.07085994  0.59119505  0.74461033     0.42000
Cu430      Cu  0.10401405  0.55783373  0.74470884     0.43900
N431        N  0.08182329  0.53366395  0.76164809    -0.34300
N432        N  0.09567811  0.53459831  0.75292648    -0.28600
C433        C  0.10140659  0.51898492  0.75025479    -0.04700
C434        C  0.09045178  0.50785497  0.75767490     0.07500
C435        C  0.07833614  0.51773253  0.76480874     0.01300
H436        H  0.11221873  0.51594322  0.74286564     0.09000
H437        H  0.06712021  0.51364909  0.77095967     0.08100
N438        N  0.10804441  0.58335827  0.74120501    -0.35800
N439        N  0.09644587  0.59504662  0.74127306    -0.28000
C440        C  0.10388473  0.60998656  0.74023870    -0.03200
C441        C  0.12104321  0.60785044  0.73954436     0.05400
C442        C  0.12305191  0.59065526  0.74004992     0.03500
H443        H  0.09717317  0.62161204  0.74067298     0.08600
H444        H  0.13449939  0.58368701  0.73994139     0.07400
N445        N  0.97528575  0.58309930  0.75289859    -0.26900
N446        N  0.97688365  0.56781316  0.75858117    -0.34800
C447        C  0.99289797  0.56444563  0.76138671     0.01400
C448        C  0.00225190  0.57815819  0.75720213     0.07400
C449        C  0.99067558  0.58989728  0.75179827    -0.05700
H450        H  0.99741191  0.55250205  0.76555950     0.08100
H451        H  0.99326446  0.60227277  0.74727274     0.09300
Cu452      Cu  0.95797780  0.55086781  0.76026701     0.44200
Cu453      Cu  0.95127702  0.59198280  0.74719709     0.42000
Cu454      Cu  0.91843201  0.55761702  0.74451563     0.43900
N455        N  0.94128189  0.53186838  0.75737738    -0.34300
N456        N  0.92639118  0.53368400  0.75081576    -0.28600
C457        C  0.91917298  0.51852455  0.74972031    -0.04700
C458        C  0.93024561  0.50680282  0.75600870     0.07500
C459        C  0.94404688  0.51583722  0.76068816     0.01300
H460        H  0.90691978  0.51621116  0.74472529     0.09000
H461        H  0.95555252  0.51110793  0.76575975     0.08100
N462        N  0.91419808  0.58328045  0.74293957    -0.35800
N463        N  0.92537088  0.59531284  0.74421105    -0.28000
C464        C  0.91732993  0.61003591  0.74383061    -0.03200
C465        C  0.90029330  0.60731013  0.74227108     0.05400
C466        C  0.89898770  0.59009791  0.74160784     0.03500
H467        H  0.92350312  0.62189636  0.74500152     0.08600
H468        H  0.88786307  0.58276288  0.74029171     0.07400
N469        N  0.97208972  0.41413597  0.75254025    -0.26900
N470        N  0.97290158  0.42770055  0.76171140    -0.34800
C471        C  0.98879068  0.43106444  0.76530578     0.01400
C472        C  0.99873833  0.41908747  0.75804827     0.07400
C473        C  0.98772173  0.40842455  0.75004464    -0.05700
H474        H  0.99281837  0.44202327  0.77195298     0.08100
H475        H  0.99087107  0.39777760  0.74246071     0.09300
Cu476      Cu  0.95296612  0.44313068  0.76591083     0.44200
Cu477      Cu  0.94890899  0.40600953  0.74388261     0.42000
Cu478      Cu  0.91510285  0.43861332  0.74416291     0.43900
N479        N  0.93708118  0.46266096  0.76163677    -0.34300
N480        N  0.92338990  0.46181332  0.75265777    -0.28600
C481        C  0.91793860  0.47748540  0.74978220    -0.04700
C482        C  0.92896332  0.48851537  0.75726846     0.07500
C483        C  0.94077529  0.47855470  0.76469445     0.01300
H484        H  0.90739278  0.48062597  0.74207261     0.09000
H485        H  0.95197531  0.48253461  0.77094274     0.08100
N486        N  0.91153492  0.41298530  0.74060807    -0.35800
N487        N  0.92339846  0.40156700  0.74058588    -0.28000
C488        C  0.91631751  0.38642819  0.73978652    -0.03200
C489        C  0.89908488  0.38814187  0.73928132     0.05400
C490        C  0.89670094  0.40529554  0.73974384     0.03500
H491        H  0.92342922  0.37508775  0.74041173     0.08600
H492        H  0.88498963  0.41185895  0.74003645     0.07400
C493        C  0.75654464  0.33926638  0.83070331     0.03500
C494        C  0.74379783  0.32734147  0.82948416    -0.12700
C495        C  0.74370949  0.31533319  0.81676398     0.01000
C496        C  0.75680103  0.31532662  0.80510785    -0.11200
C497        C  0.76984931  0.32699866  0.80604455     0.03500
C498        C  0.76958957  0.33886530  0.81896274    -0.10600
H499        H  0.73388423  0.32736349  0.83857159     0.09100
H500        H  0.75685135  0.30615656  0.79525210     0.06600
H501        H  0.77953878  0.34784908  0.81982223     0.06400
C502        C  0.84679905  0.33742831  0.74196412     0.03500
C503        C  0.83475944  0.33746060  0.75473361    -0.12700
C504        C  0.82182678  0.32565958  0.75499926     0.01000
C505        C  0.82140201  0.31336446  0.74249530    -0.11200
C506        C  0.83338557  0.31291745  0.72972329     0.03500
C507        C  0.84596573  0.32506590  0.72957414    -0.10600
H508        H  0.83531430  0.34683481  0.76437638     0.09100
H509        H  0.81159338  0.30417265  0.74261637     0.06600
H510        H  0.85511824  0.32493923  0.71970228     0.06400
C511        C  0.66639695  0.25257907  0.82768010     0.03500
C512        C  0.66648625  0.24013163  0.81532432    -0.12700
C513        C  0.67876801  0.23976318  0.80282695     0.01000
C514        C  0.69131362  0.25198001  0.80300022    -0.11200
C515        C  0.69162253  0.26453638  0.81523043     0.03500
C516        C  0.67894208  0.26481086  0.82732689    -0.10600
H517        H  0.65692057  0.23068420  0.81539130     0.09100
H518        H  0.70085670  0.25173240  0.79352622     0.06600
H519        H  0.67887509  0.27461555  0.83653756     0.06400
C520        C  0.66605168  0.16255615  0.73921902     0.03500
C521        C  0.66606270  0.17487612  0.75174419    -0.12700
C522        C  0.67812579  0.18763032  0.75193839     0.01000
C523        C  0.69033244  0.18783423  0.73936123    -0.11200
C524        C  0.69068262  0.17563725  0.72681436     0.03500
C525        C  0.67839728  0.16322434  0.72679629    -0.10600
H526        H  0.65670852  0.17452633  0.76138958     0.09100
H527        H  0.69965310  0.19752486  0.73935826     0.06600
H528        H  0.67855257  0.15391976  0.71706783     0.06400
C529        C  0.75491129  0.16176903  0.65096731     0.03500
C530        C  0.76718013  0.17424974  0.65106119    -0.12700
C531        C  0.76721152  0.18678698  0.66333757     0.01000
C532        C  0.75464004  0.18668154  0.67552319    -0.11200
C533        C  0.74205856  0.17454650  0.67548799     0.03500
C534        C  0.74241325  0.16203919  0.66321819    -0.10600
H535        H  0.77674876  0.17414146  0.64159149     0.09100
H536        H  0.75464584  0.19608985  0.68514898     0.06600
H537        H  0.73300087  0.15243206  0.66322565     0.06400
C538        C  0.84409027  0.24994824  0.65239723     0.03500
C539        C  0.83177455  0.23752910  0.65272709    -0.12700
C540        C  0.81937490  0.23733750  0.66507216     0.01000
C541        C  0.81936177  0.24996725  0.67723494    -0.11200
C542        C  0.83145372  0.26264104  0.67716250     0.03500
C543        C  0.84372564  0.26249962  0.66464173    -0.10600
H544        H  0.83179881  0.22797726  0.64324584     0.09100
H545        H  0.80988897  0.24994349  0.68679865     0.06600
H546        H  0.85305683  0.27216987  0.66447122     0.06400
N547        N  0.41969102  0.25544772  0.95465548    -0.26900
N548        N  0.43447879  0.26173365  0.95787540    -0.34800
C549        C  0.43785146  0.26005870  0.97406666     0.01400
C550        C  0.42451236  0.25252031  0.98169277     0.07400
C551        C  0.41307540  0.24976085  0.96903629    -0.05700
H552        H  0.44962884  0.26321810  0.97971280     0.08100
H553        H  0.40148633  0.24303988  0.96998705     0.09300
Cu554      Cu  0.45101872  0.26945126  0.94002655     0.44200
Cu555      Cu  0.41174613  0.25346840  0.92995934     0.42000
Cu556      Cu  0.44574720  0.26034185  0.89768036     0.43900
N557        N  0.47028377  0.27097831  0.92333035    -0.34300
N558        N  0.46918987  0.26672226  0.90753316    -0.28600
C559        C  0.48472481  0.26676861  0.90096766    -0.04700
C560        C  0.49593393  0.27127302  0.91340657     0.07500
C561        C  0.48616135  0.27390277  0.92727904     0.01300
H562        H  0.48771510  0.26315295  0.88837090     0.09000
H563        H  0.49033666  0.27679579  0.93971435     0.08100
N564        N  0.42027524  0.25618254  0.89278377    -0.35800
N565        N  0.40851316  0.25382487  0.90409347    -0.28000
C566        C  0.39378098  0.25220077  0.89632927    -0.03200
C567        C  0.39613171  0.25353929  0.87929556     0.05400
C568        C  0.41315176  0.25610719  0.87760572     0.03500
H569        H  0.38213854  0.25020685  0.90272709     0.08600
H570        H  0.41991471  0.25829480  0.86621876     0.07400
N571        N  0.59146430  0.25676838  0.95446016    -0.26900
N572        N  0.57642869  0.26217181  0.95819558    -0.34800
C573        C  0.57380076  0.26043650  0.97454091     0.01400
C574        C  0.58790779  0.25382601  0.98172300     0.07400
C575        C  0.59896894  0.25162246  0.96861487    -0.05700
H576        H  0.56210744  0.26303614  0.98065434     0.08100
H577        H  0.61102207  0.24569430  0.96915453     0.09300
Cu578      Cu  0.55903118  0.26930084  0.94077919     0.44200
Cu579      Cu  0.59884053  0.25527214  0.92950565     0.42000
Cu580      Cu  0.56482272  0.26194983  0.89761726     0.43900
N581        N  0.53994353  0.27106789  0.92378134    -0.34300
N582        N  0.54129321  0.26752050  0.90781367    -0.28600
C583        C  0.52583892  0.26756261  0.90108049    -0.04700
C584        C  0.51439950  0.27135734  0.91354476     0.07500
C585        C  0.52395335  0.27357858  0.92763655     0.01300
H586        H  0.52307624  0.26447675  0.88829718     0.09000
H587        H  0.51956132  0.27590059  0.94012252     0.08100
N588        N  0.59021499  0.25767326  0.89234320    -0.35800
N589        N  0.60201398  0.25531985  0.90359591    -0.28000
C590        C  0.61667768  0.25340708  0.89574776    -0.03200
C591        C  0.61427933  0.25458116  0.87868814     0.05400
C592        C  0.59724829  0.25733266  0.87710553     0.03500
H593        H  0.62831549  0.25134794  0.90212537     0.08600
H594        H  0.59040419  0.25946195  0.86576717     0.07400
N595        N  0.47141993  0.24284440  0.07302603    -0.26900
N596        N  0.47283320  0.23720119  0.05767874    -0.34800
C597        C  0.48888342  0.23506337  0.05397213     0.01400
C598        C  0.49835797  0.23959079  0.06753259     0.07400
C599        C  0.48686814  0.24447970  0.07952577    -0.05700
H600        H  0.49329658  0.23103233  0.04193627     0.08100
H601        H  0.48953692  0.24916558  0.09183602     0.09300
Cu602      Cu  0.45362573  0.23476187  0.04096584     0.44200
Cu603      Cu  0.44784054  0.24807847  0.08285701     0.42000
Cu604      Cu  0.41351044  0.24768499  0.05071096     0.43900
N605        N  0.43607575  0.23899342  0.02284768    -0.34300
N606        N  0.42091807  0.24434072  0.02607361    -0.28600
C607        C  0.41356058  0.24869865  0.01160921    -0.04700
C608        C  0.42483002  0.24599658  0.99879694     0.07500
C609        C  0.43890597  0.23989421  0.00647477     0.01300
H610        H  0.40162014  0.25480279  0.01066775     0.09000
H611        H  0.45084826  0.23761106  0.00072816     0.08100
N612        N  0.41035694  0.24994992  0.07640097    -0.35800
N613        N  0.42228636  0.25033091  0.08773729    -0.28000
C614        C  0.41522044  0.25172136  0.10286568    -0.03200
C615        C  0.39803462  0.25227888  0.10109237     0.05400
C616        C  0.39554566  0.25100010  0.08406648     0.03500
H617        H  0.42217189  0.25221662  0.11434552     0.08600
H618        H  0.38385155  0.25035552  0.07754070     0.07400
N619        N  0.59376145  0.24657601  0.02619449    -0.26900
N620        N  0.57887910  0.24027627  0.02350681    -0.34800
C621        C  0.57542294  0.24075137  0.00724737     0.01400
C622        C  0.58875540  0.24759932  0.99896871     0.07400
C623        C  0.60029831  0.25116460  0.01137143    -0.05700
H624        H  0.56344383  0.23767141  0.00199240     0.08100
H625        H  0.61181029  0.25792090  0.00989569     0.09300
Cu626      Cu  0.56198724  0.23547995  0.04197645     0.44200
Cu627      Cu  0.60171877  0.25027975  0.05083998     0.42000
Cu628      Cu  0.56714457  0.24886165  0.08324075     0.43900
N629        N  0.54243879  0.23772386  0.05819592    -0.34300
N630        N  0.54356744  0.24339624  0.07353594    -0.28600
C631        C  0.52799861  0.24479943  0.07983891    -0.04700
C632        C  0.51675549  0.23975407  0.06767138     0.07500
C633        C  0.52649307  0.23538958  0.05424255     0.01300
H634        H  0.52507614  0.24941706  0.09212255     0.09000
H635        H  0.52233330  0.23130735  0.04214130     0.08100
N636        N  0.59275277  0.25079060  0.08809470    -0.35800
N637        N  0.60480759  0.25115952  0.07685906    -0.28000
C638        C  0.61952588  0.25151328  0.08484481    -0.03200
C639        C  0.61682763  0.25129422  0.10193296     0.05400
C640        C  0.59960027  0.25095113  0.10337530     0.03500
H641        H  0.63139570  0.25149906  0.07855572     0.08600
H642        H  0.59234960  0.25083895  0.11465697     0.07400
N643        N  0.26098675  0.46813103  0.07397123    -0.26900
N644        N  0.26280192  0.47038200  0.05784254    -0.34800
C645        C  0.26559622  0.48642942  0.05467914     0.01400
C646        C  0.26546438  0.49506616  0.06947455     0.07400
C647        C  0.26239103  0.48309848  0.08159545    -0.05700
H648        H  0.26771274  0.49140767  0.04238244     0.08100
H649        H  0.26185087  0.48503093  0.09488425     0.09300
Cu650      Cu  0.26211026  0.45183265  0.04043702     0.44200
Cu651      Cu  0.25815748  0.44379294  0.08300411     0.42000
Cu652      Cu  0.25740801  0.40977729  0.04925731     0.43900
N653        N  0.26198362  0.43424091  0.02205026    -0.34300
N654        N  0.25997864  0.41818842  0.02459276    -0.28600
C655        C  0.26102039  0.41031992  0.00969872    -0.04700
C656        C  0.26402060  0.42221727  0.99746143     0.07500
C657        C  0.26450236  0.43712548  0.00589784     0.01300
H658        H  0.26034302  0.39701033  0.00798959     0.09000
H659        H  0.26677065  0.44930594  0.00071451     0.08100
N660        N  0.25702855  0.40621173  0.07526128    -0.35800
N661        N  0.25739195  0.41790982  0.08689582    -0.28000
C662        C  0.25769222  0.41051962  0.10192574    -0.03200
C663        C  0.25758243  0.39335879  0.09989083     0.05400
C664        C  0.25702188  0.39123143  0.08273568     0.03500
H665        H  0.25831354  0.41725616  0.11353638     0.08600
H666        H  0.25653604  0.37965294  0.07597250     0.07400
N667        N  0.26681603  0.54007433  0.07628374    -0.26900
N668        N  0.27521024  0.53835703  0.06230921    -0.34800
C669        C  0.27676491  0.52221718  0.05866114     0.01400
C670        C  0.26900025  0.51303586  0.07088310     0.07400
C671        C  0.26287075  0.52476560  0.08204273    -0.05700
H672        H  0.28210162  0.51757435  0.04722438     0.08100
H673        H  0.25506267  0.52241115  0.09272094     0.09300
Cu674      Cu  0.28036774  0.55758560  0.04634644     0.44200
Cu675      Cu  0.26001325  0.56398167  0.08401886     0.42000
Cu676      Cu  0.26038147  0.59632795  0.04959332     0.43900
N677        N  0.27751680  0.57320064  0.02636989    -0.34300
N678        N  0.26916945  0.58731563  0.02669606    -0.28600
C679        C  0.26749250  0.59282246  0.01086495    -0.04700
C680        C  0.27514477  0.58141263  0.00028380     0.07500
C681        C  0.28135819  0.56929037  0.01068427     0.01300
H682        H  0.26066284  0.60382935  0.00728332     0.09000
H683        H  0.28745982  0.55786260  0.00710160     0.08100
N684        N  0.25679276  0.60098310  0.07510136    -0.35800
N685        N  0.25695096  0.58970419  0.08708565    -0.28000
C686        C  0.25579988  0.59751634  0.10184154    -0.03200
C687        C  0.25487309  0.61459287  0.09929994     0.05400
C688        C  0.25541801  0.61616435  0.08205598     0.03500
H689        H  0.25619098  0.59110415  0.11362296     0.08600
H690        H  0.25510533  0.62744365  0.07484154     0.07400
N691        N  0.27272563  0.53469414  0.90613218    -0.26900
N692        N  0.27917839  0.53303686  0.92110626    -0.34800
C693        C  0.28225217  0.51696858  0.92406461     0.01400
C694        C  0.27747997  0.50775915  0.91036237     0.07400
C695        C  0.27147363  0.51943839  0.89910506    -0.05700
H696        H  0.28702751  0.51231200  0.93571805     0.08100
H697        H  0.26625227  0.51700017  0.88696693     0.09300
Cu698      Cu  0.28147661  0.55214588  0.93807706     0.44200
Cu699      Cu  0.26607555  0.55839047  0.89773561     0.42000
Cu700      Cu  0.26628839  0.59239940  0.93073070     0.43900
N701        N  0.27831385  0.56935246  0.95685066    -0.34300
N702        N  0.27181035  0.58425758  0.95476723    -0.28600
C703        C  0.26976706  0.59140719  0.96988220    -0.04700
C704        C  0.27538974  0.58032651  0.98190635     0.07500
C705        C  0.28072060  0.56658839  0.97305991     0.01300
H706        H  0.26437688  0.60354576  0.97197065     0.09000
H707        H  0.28540671  0.55503059  0.97804239     0.08100
N708        N  0.26403963  0.59583386  0.90502394    -0.35800
N709        N  0.26363955  0.58399380  0.89358841    -0.28000
C710        C  0.26239549  0.59110068  0.87851153    -0.03200
C711        C  0.26214939  0.60831474  0.88029674     0.05400
C712        C  0.26320371  0.61067994  0.89740272     0.03500
H713        H  0.26179874  0.58395321  0.86719574     0.08600
H714        H  0.26358521  0.62236251  0.90400708     0.07400
N715        N  0.27302717  0.46270586  0.90350689    -0.26900
N716        N  0.27973063  0.46344438  0.91844490    -0.34800
C717        C  0.28281054  0.47926491  0.92246329     0.01400
C718        C  0.27778036  0.48934988  0.90955089     0.07400
C719        C  0.27166067  0.47841694  0.89756649    -0.05700
H720        H  0.28740065  0.48315258  0.93447323     0.08100
H721        H  0.26595291  0.48168828  0.88585364     0.09300
Cu722      Cu  0.28089003  0.44387735  0.93475510     0.44200
Cu723      Cu  0.26511762  0.43950805  0.89434619     0.42000
Cu724      Cu  0.25956519  0.40684304  0.92836802     0.43900
N725        N  0.27443554  0.42857777  0.95412290    -0.34300
N726        N  0.26578650  0.41477652  0.95242955    -0.28600
C727        C  0.26142573  0.40932969  0.96776704    -0.04700
C728        C  0.26754695  0.42053690  0.97946881     0.07500
C729        C  0.27570959  0.43244865  0.97023132     0.01300
H730        H  0.25345633  0.39878763  0.97014143     0.09000
H731        H  0.28130563  0.44377434  0.97480388     0.08100
N732        N  0.25719641  0.40297702  0.90262292    -0.35800
N733        N  0.25929408  0.41419266  0.89073315    -0.28000
C734        C  0.25786086  0.40655021  0.87586866    -0.03200
C735        C  0.25465564  0.38974216  0.87835983     0.05400
C736        C  0.25433521  0.38809149  0.89553310     0.03500
H737        H  0.25975662  0.41276575  0.86413003     0.08600
H738        H  0.25246938  0.37677230  0.90250060     0.07400
C739        C  0.17061581  0.24780712  0.64918047     0.03500
C740        C  0.17076387  0.26055267  0.66118116    -0.12700
C741        C  0.18254545  0.26067184  0.67405256     0.01000
C742        C  0.19462159  0.24808755  0.67464952    -0.11200
C743        C  0.19525132  0.23562513  0.66239383     0.03500
C744        C  0.18304868  0.23545200  0.64983094    -0.10600
H745        H  0.16160928  0.27039656  0.66061202     0.09100
H746        H  0.20367822  0.24811435  0.68460503     0.06600
H747        H  0.18327082  0.22571597  0.64053390     0.06400
C748        C  0.26198636  0.16228657  0.65029423     0.03500
C749        C  0.27469828  0.16343938  0.66222179    -0.12700
C750        C  0.27420584  0.17549886  0.67484986     0.01000
C751        C  0.26091242  0.18687431  0.67520390    -0.11200
C752        C  0.24815948  0.18615614  0.66323695     0.03500
C753        C  0.24881598  0.17379198  0.65087788    -0.10600
H754        H  0.28523178  0.15509303  0.66155655     0.09100
H755        H  0.26027137  0.19607185  0.68501487     0.06600
H756        H  0.23908642  0.17320067  0.64161081     0.06400
C757        C  0.34898495  0.16176782  0.74003534     0.03500
C758        C  0.34812823  0.17383260  0.75271738    -0.12700
C759        C  0.33619194  0.18663764  0.75221881     0.01000
C760        C  0.32468903  0.18699364  0.73906484    -0.11200
C761        C  0.32508044  0.17493472  0.72641125     0.03500
C762        C  0.33748869  0.16260391  0.72687037    -0.10600
H763        H  0.35647540  0.17305237  0.76323077     0.09100
H764        H  0.31526944  0.19661155  0.73879050     0.06600
H765        H  0.33828279  0.15366508  0.71683782     0.06400
C766        C  0.16761186  0.33700210  0.73664121     0.03500
C767        C  0.16828715  0.32455392  0.72433883    -0.12700
C768        C  0.18027850  0.31184190  0.72503138     0.01000
C769        C  0.19192581  0.31181220  0.73804522    -0.11200
C770        C  0.19167344  0.32420810  0.75038078     0.03500
C771        C  0.17927554  0.33655162  0.74971053    -0.10600
H772        H  0.15943520  0.32470217  0.71420491     0.09100
H773        H  0.20119091  0.30205698  0.73857355     0.06600
H774        H  0.17873829  0.34584148  0.75942410     0.06400
C775        C  0.34430299  0.25124924  0.82825425     0.03500
C776        C  0.34448968  0.23849162  0.81624320    -0.12700
C777        C  0.33234481  0.23764283  0.80367854     0.01000
C778        C  0.31965725  0.24971596  0.80337992    -0.11200
C779        C  0.31899061  0.26245138  0.81536822     0.03500
C780        C  0.33156932  0.26328351  0.82751043    -0.10600
H781        H  0.35400069  0.22898273  0.81680578     0.09100
H782        H  0.31049274  0.24947464  0.79354022     0.06600
H783        H  0.33138007  0.27336030  0.83641945     0.06400
C784        C  0.25250324  0.33618927  0.82910978     0.03500
C785        C  0.24019731  0.33576454  0.81666036    -0.12700
C786        C  0.24032597  0.32348650  0.80417738     0.01000
C787        C  0.25301500  0.31141537  0.80430270    -0.11200
C788        C  0.26558627  0.31165551  0.81644235     0.03500
C789        C  0.26518133  0.32407558  0.82879202    -0.10600
H790        H  0.23060288  0.34519686  0.81653725     0.09100
H791        H  0.25327945  0.30194832  0.79472991     0.06600
H792        H  0.27494128  0.32442998  0.83803057     0.06400
N793        N  0.27038731  0.91596063  0.45529655    -0.26900
N794        N  0.27892195  0.92986948  0.45669093    -0.34800
C795        C  0.28113197  0.93342888  0.47275375     0.01400
C796        C  0.27361469  0.92125879  0.48223391     0.07400
C797        C  0.26692942  0.91020971  0.47073695    -0.05700
H798        H  0.28715703  0.94459411  0.47714719     0.08100
H799        H  0.25957036  0.89929165  0.47337060     0.09300
Cu800      Cu  0.28442041  0.94553130  0.43722320     0.44200
Cu801      Cu  0.26373649  0.90762757  0.43164639     0.42000
Cu802      Cu  0.26657870  0.94004144  0.39763512     0.43900
N803        N  0.28210329  0.96468988  0.42041658    -0.34300
N804        N  0.27462108  0.96338778  0.40588825    -0.28600
C805        C  0.27283547  0.97881089  0.39939363    -0.04700
C806        C  0.27952030  0.99021572  0.41054222     0.07500
C807        C  0.28530937  0.98068353  0.42360314     0.01300
H808        H  0.26656409  0.98156340  0.38783830     0.09000
H809        H  0.29061138  0.98507531  0.43513725     0.08100
N810        N  0.26178326  0.91462297  0.39421003    -0.35800
N811        N  0.26097802  0.90334033  0.40614978    -0.28000
C812        C  0.25883234  0.88827805  0.39923190    -0.03200
C813        C  0.25806101  0.88990731  0.38203832     0.05400
C814        C  0.26002642  0.90690803  0.37945439     0.03500
H815        H  0.25847892  0.87699971  0.40644146     0.08600
H816        H  0.26044934  0.91332192  0.36767623     0.07400
N817        N  0.26860346  0.91692816  0.52758723    -0.26900
N818        N  0.27469432  0.93202041  0.52590144    -0.34800
C819        C  0.27695240  0.93548930  0.50986759     0.01400
C820        C  0.27224125  0.92192906  0.50056245     0.07400
C821        C  0.26686839  0.91023671  0.51219225    -0.05700
H822        H  0.28173588  0.94720245  0.50539035     0.08100
H823        H  0.26230700  0.89785635  0.50967050     0.09300
Cu824      Cu  0.27960301  0.94798937  0.54491280     0.44200
Cu825      Cu  0.26399995  0.90832913  0.55184541     0.42000
Cu826      Cu  0.26625307  0.94295792  0.58516872     0.43900
N827        N  0.28018822  0.96722065  0.56134964    -0.34300
N828        N  0.27413379  0.96639550  0.57653368    -0.28600
C829        C  0.27438883  0.98191593  0.58312689    -0.04700
C830        C  0.28109379  0.99272005  0.57132690     0.07500
C831        C  0.28460320  0.98280615  0.55780496     0.01300
H832        H  0.26983498  0.98514033  0.59535719     0.09000
H833        H  0.28924149  0.98671945  0.54582286     0.08100
N834        N  0.26254127  0.91726989  0.58923136    -0.35800
N835        N  0.26207169  0.90535190  0.57783422    -0.28000
C836        C  0.26057135  0.89059550  0.58559631    -0.03200
C837        C  0.26003459  0.89304300  0.60273334     0.05400
C838        C  0.26123553  0.91025296  0.60437838     0.03500
H839        H  0.26021564  0.87886566  0.57907220     0.08600
H840        H  0.26131086  0.91744769  0.61568163     0.07400
N841        N  0.27763433  0.08487516  0.45396744    -0.26900
N842        N  0.28430168  0.06995235  0.45501037    -0.34800
C843        C  0.28807333  0.06649190  0.47079819     0.01400
C844        C  0.28358726  0.07983016  0.48056581     0.07400
C845        C  0.27694679  0.09141123  0.46949285    -0.05700
H846        H  0.29310447  0.05472701  0.47488778     0.08100
H847        H  0.27174999  0.10343166  0.47253786     0.09300
Cu848      Cu  0.28580138  0.05366602  0.43563248     0.44200
Cu849      Cu  0.27006924  0.09332861  0.43038469     0.42000
Cu850      Cu  0.26798184  0.05933066  0.39668627     0.43900
N851        N  0.28201596  0.03425703  0.41976249    -0.34300
N852        N  0.27470247  0.03547323  0.40516359    -0.28600
C853        C  0.27281866  0.01990906  0.39894650    -0.04700
C854        C  0.27931187  0.00862710  0.41041485     0.07500
C855        C  0.28497644  0.01833157  0.42333874     0.01300
H856        H  0.26688375  0.01699588  0.38725031     0.09000
H857        H  0.29036005  0.01416187  0.43491238     0.08100
N858        N  0.26505961  0.08518768  0.39310573    -0.35800
N859        N  0.26589761  0.09688162  0.40471725    -0.28000
C860        C  0.26435102  0.11185569  0.39737805    -0.03200
C861        C  0.26231022  0.10975675  0.38031920     0.05400
C862        C  0.26288354  0.09258574  0.37822933     0.03500
H863        H  0.26527451  0.12341016  0.40412085     0.08600
H864        H  0.26198169  0.08583044  0.36665352     0.07400
N865        N  0.28100498  0.08527947  0.52576629    -0.26900
N866        N  0.28883257  0.07090712  0.52455766    -0.34800
C867        C  0.29143198  0.06739879  0.50848789     0.01400
C868        C  0.28486007  0.08008557  0.49891592     0.07400
C869        C  0.27837118  0.09132473  0.51031072    -0.05700
H870        H  0.29687673  0.05591619  0.50410350     0.08100
H871        H  0.27159823  0.10260436  0.50756998     0.09300
Cu872      Cu  0.29249486  0.05481092  0.54428596     0.44200
Cu873      Cu  0.27354815  0.09422603  0.54891713     0.42000
Cu874      Cu  0.27106618  0.06174669  0.58216650     0.43900
N875        N  0.28799134  0.03617003  0.56140971    -0.34300
N876        N  0.27907044  0.03810133  0.57504853    -0.28600
C877        C  0.27587221  0.02294557  0.58158532    -0.04700
C878        C  0.28313509  0.01100445  0.57141358     0.07500
C879        C  0.29077464  0.01996037  0.55889497     0.01300
H880        H  0.26803864  0.02074900  0.59227940     0.09000
H881        H  0.29692300  0.01502630  0.54800637     0.08100
N882        N  0.26790648  0.08728817  0.58574508    -0.35800
N883        N  0.26904010  0.09879905  0.57406171    -0.28000
C884        C  0.26768372  0.11388192  0.58118109    -0.03200
C885        C  0.26547430  0.11191364  0.59819385     0.05400
C886        C  0.26571110  0.09481391  0.60051123     0.03500
H887        H  0.26893524  0.12537789  0.57439667     0.08600
H888        H  0.26466027  0.08820614  0.61214789     0.07400
N889        N  0.47149527  0.08687738  0.25358501    -0.26900
N890        N  0.47257229  0.07210842  0.26058426    -0.34800
C891        C  0.48839392  0.06887743  0.26447218     0.01400
C892        C  0.49807290  0.08215488  0.25961946     0.07400
C893        C  0.48694885  0.09347434  0.25271489    -0.05700
H894        H  0.49259811  0.05723592  0.26968599     0.08100
H895        H  0.48990552  0.10533579  0.24715657     0.09300
Cu896      Cu  0.45334994  0.05542231  0.26197685     0.44200
Cu897      Cu  0.44822812  0.09538397  0.24561507     0.42000
Cu898      Cu  0.41496432  0.06133903  0.24299333     0.43900
N899        N  0.43724790  0.03605889  0.25793943    -0.34300
N900        N  0.42287408  0.03738661  0.25019918    -0.28600
C901        C  0.41627780  0.02192114  0.24868558    -0.04700
C902        C  0.42723263  0.01053684  0.25590540     0.07500
C903        C  0.44027609  0.02014109  0.26155159     0.01300
H904        H  0.40454869  0.01915696  0.24275040     0.09000
H905        H  0.45148397  0.01589204  0.26760632     0.08100
N906        N  0.41128177  0.08721456  0.24016925    -0.35800
N907        N  0.42276401  0.09898696  0.24122209    -0.28000
C908        C  0.41532251  0.11394740  0.23990780    -0.03200
C909        C  0.39832059  0.11171422  0.23782755     0.05400
C910        C  0.39636733  0.09453770  0.23807779     0.03500
H911        H  0.42189690  0.12557673  0.24109455     0.08600
H912        H  0.38484845  0.08772498  0.23708734     0.07400
N913        N  0.59068359  0.03762802  0.25569792    -0.26900
N914        N  0.57685005  0.03706985  0.26449055    -0.34800
C915        C  0.57317191  0.02127040  0.26806081     0.01400
C916        C  0.58517589  0.01108472  0.26120486     0.07400
C917        C  0.59623102  0.02188512  0.25344555    -0.05700
H918        H  0.56201641  0.01748123  0.27450598     0.08100
H919        H  0.60708271  0.01852865  0.24625267     0.09300
Cu920      Cu  0.56134731  0.05701443  0.26857773     0.44200
Cu921      Cu  0.59948105  0.06058904  0.24716399     0.42000
Cu922      Cu  0.56668456  0.09444334  0.24770136     0.43900
N923        N  0.54196880  0.07323821  0.26465869    -0.34300
N924        N  0.54324575  0.08696932  0.25583562    -0.28600
C925        C  0.52780755  0.09308364  0.25312316    -0.04700
C926        C  0.51641682  0.08248769  0.26064047     0.07500
C927        C  0.52595640  0.07017184  0.26785338     0.01300
H928        H  0.52505078  0.10386234  0.24559612     0.09000
H929        H  0.52157158  0.05912455  0.27409066     0.08100
N930        N  0.59219604  0.09786858  0.24424212    -0.35800
N931        N  0.60370217  0.08609851  0.24375489    -0.28000
C932        C  0.61868975  0.09335239  0.24215650    -0.03200
C933        C  0.61670292  0.11053513  0.24169421     0.05400
C934        C  0.59962889  0.11277531  0.24313753     0.03500
H935        H  0.63022969  0.08649169  0.24172937     0.08600
H936        H  0.59287245  0.12431744  0.24402705     0.07400
N937        N  0.58879456  0.96567038  0.25701024    -0.26900
N938        N  0.57452392  0.96738404  0.26489242    -0.34800
C939        C  0.57153840  0.98349808  0.26770251     0.01400
C940        C  0.58451551  0.99269433  0.26128892     0.07400
C941        C  0.59535005  0.98097265  0.25455005    -0.05700
H942        H  0.56033319  0.98816400  0.27347941     0.08100
H943        H  0.60688417  0.98340186  0.24810286     0.09300
Cu944      Cu  0.55835575  0.94818664  0.26941917     0.44200
Cu945      Cu  0.59678998  0.94175244  0.25025724     0.42000
Cu946      Cu  0.56375330  0.90812506  0.25230032     0.43900
N947        N  0.53930441  0.93132944  0.26764757    -0.34300
N948        N  0.54048070  0.91661722  0.26049218    -0.28600
C949        C  0.52504393  0.90999121  0.25946952    -0.04700
C950        C  0.51381908  0.92124603  0.26636112     0.07500
C951        C  0.52343510  0.93450358  0.27141167     0.01300
H952        H  0.52214795  0.89821722  0.25367650     0.09000
H953        H  0.51916750  0.94610607  0.27668693     0.08100
N954        N  0.58920276  0.90432653  0.24770902    -0.35800
N955        N  0.60071071  0.91609048  0.24706404    -0.28000
C956        C  0.61565628  0.90885121  0.24490855    -0.03200
C957        C  0.61367557  0.89171921  0.24411178     0.05400
C958        C  0.59665665  0.88940697  0.24596310     0.03500
H959        H  0.62720573  0.91565672  0.24419074     0.08600
H960        H  0.59012517  0.87771200  0.24671379     0.07400
N961        N  0.46869217  0.91578828  0.26225598    -0.26900
N962        N  0.46978877  0.93061699  0.26915441    -0.34800
C963        C  0.48572690  0.93413967  0.27224039     0.01400
C964        C  0.49543762  0.92100883  0.26691335     0.07400
C965        C  0.48420647  0.90944588  0.26066313    -0.05700
H966        H  0.48996098  0.94597614  0.27696670     0.08100
H967        H  0.48713367  0.89773442  0.25474360     0.09300
Cu968      Cu  0.45049411  0.94736429  0.27029522     0.44200
Cu969      Cu  0.44542805  0.90705939  0.25465840     0.42000
Cu970      Cu  0.41240902  0.94078328  0.25033848     0.43900
N971        N  0.43508362  0.96668036  0.26369109    -0.34300
N972        N  0.42098463  0.96499921  0.25551337    -0.28600
C973        C  0.41531182  0.98039693  0.25153471    -0.04700
C974        C  0.42660535  0.99212849  0.25752280     0.07500
C975        C  0.43884659  0.98278946  0.26512253     0.01300
H976        H  0.40415133  0.98285090  0.24446902     0.09000
H977        H  0.45014261  0.98728983  0.27081068     0.08100
N978        N  0.40855486  0.91486651  0.24861205    -0.35800
N979        N  0.42006951  0.90316594  0.25015326    -0.28000
C980        C  0.41275371  0.88815342  0.24901627    -0.03200
C981        C  0.39579186  0.89027641  0.24653668     0.05400
C982        C  0.39371592  0.90744596  0.24640729     0.03500
H983        H  0.41939315  0.87657935  0.25047550     0.08600
H984        H  0.38218720  0.91417705  0.24490959     0.07400
C985        C  0.25393764  0.66533286  0.15158323     0.03500
C986        C  0.26647585  0.67752615  0.15198491    -0.12700
C987        C  0.26679023  0.68978996  0.16447622     0.01000
C988        C  0.25420693  0.68982258  0.17664619    -0.11200
C989        C  0.24155295  0.67773899  0.17655262     0.03500
C990        C  0.24146657  0.66567921  0.16386478    -0.10600
H991        H  0.27605938  0.67746207  0.14253549     0.09100
H992        H  0.25429533  0.69926426  0.18624322     0.06600
H993        H  0.23163192  0.65651660  0.16357902     0.06400
C994        C  0.16539622  0.66263378  0.23976398     0.03500
C995        C  0.16548559  0.67467338  0.25251625    -0.12700
C996        C  0.17748068  0.68738574  0.25286466     0.01000
C997        C  0.18963739  0.68788645  0.24029666    -0.11200
C998        C  0.18979880  0.67609604  0.22737167     0.03500
C999        C  0.17763427  0.66351804  0.22724725    -0.10600
H1000       H  0.15655339  0.67384417  0.26254281     0.09100
H1001       H  0.19889402  0.69764661  0.24045575     0.06600
H1002       H  0.17779181  0.65429588  0.21744235     0.06400
C1003       C  0.16784380  0.74927957  0.33125574     0.03500
C1004       C  0.18056712  0.76122221  0.33098837    -0.12700
C1005       C  0.19276727  0.76118411  0.31851367     0.01000
C1006       C  0.19233884  0.74873860  0.30622431    -0.11200
C1007       C  0.17972459  0.73658617  0.30616523     0.03500
C1008       C  0.16754131  0.73699122  0.31875221    -0.10600
H1009       H  0.18091968  0.77074809  0.34049588     0.09100
H1010       H  0.20155808  0.74882069  0.29641693     0.06600
H1011       H  0.15803527  0.72748800  0.31899136     0.06400
C1012       C  0.34494439  0.75134140  0.15433683     0.03500
C1013       C  0.33222628  0.73928653  0.15439590    -0.12700
C1014       C  0.31928000  0.73977404  0.16616950     0.01000
C1015       C  0.31947317  0.75224311  0.17842629    -0.11200
C1016       C  0.33204708  0.76435487  0.17871335     0.03500
C1017       C  0.34454628  0.76397874  0.16648493    -0.10600
H1018       H  0.33227261  0.72954598  0.14510759     0.09100
H1019       H  0.30978598  0.75257625  0.18776883     0.06600
H1020       H  0.35386017  0.77366204  0.16640802     0.06400
C1021       C  0.25548449  0.83799983  0.33110402     0.03500
C1022       C  0.24337826  0.82533242  0.33113254    -0.12700
C1023       C  0.24360478  0.81261239  0.31907414     0.01000
C1024       C  0.25586563  0.81292263  0.30663588    -0.11200
C1025       C  0.26802369  0.82541258  0.30637958     0.03500
C1026       C  0.26795399  0.83764307  0.31883175    -0.10600
H1027       H  0.23373913  0.82535603  0.34052542     0.09100
H1028       H  0.25592452  0.80344617  0.29706900     0.06600
H1029       H  0.27762711  0.84697972  0.31884618     0.06400
C1030       C  0.34316098  0.84034939  0.24252157     0.03500
C1031       C  0.34280874  0.82847677  0.22964643    -0.12700
C1032       C  0.33047573  0.81610443  0.22916523     0.01000
C1033       C  0.31823724  0.81579005  0.24163350    -0.11200
C1034       C  0.31836483  0.82746669  0.25462720     0.03500
C1035       C  0.33090465  0.83961933  0.25499958    -0.10600
H1036       H  0.35225613  0.82872615  0.22006301     0.09100
H1037       H  0.30873872  0.80626452  0.24135781     0.06600
H1038       H  0.33116887  0.84845594  0.26514570     0.06400
N1039       N  0.97057961  0.74939678  0.40724106    -0.26900
N1040       N  0.97302628  0.74522838  0.42289034    -0.34800
C1041       C  0.98917876  0.74647686  0.42656715     0.01400
C1042       C  0.99763530  0.75151862  0.41254634     0.07400
C1043       C  0.98546742  0.75321852  0.40036588    -0.05700
H1044       H  0.99429264  0.74459317  0.43885153     0.08100
H1045       H  0.98715886  0.75789712  0.38788857     0.09300
Cu1046     Cu  0.95423954  0.74067612  0.43948094     0.44200
Cu1047     Cu  0.94611685  0.75099282  0.39837539     0.42000
Cu1048     Cu  0.91166468  0.74689052  0.43082488     0.43900
N1049       N  0.93664631  0.74240755  0.45781951    -0.34300
N1050       N  0.92068158  0.74523023  0.45534098    -0.28600
C1051       C  0.91348053  0.74827804  0.47028611    -0.04700
C1052       C  0.92574426  0.74746249  0.48248867     0.07500
C1053       C  0.94012777  0.74367245  0.47400178     0.01300
H1054       H  0.90069066  0.75204819  0.47198908     0.09000
H1055       H  0.95254741  0.74295909  0.47908687     0.08100
N1056       N  0.90835484  0.74891327  0.40488349    -0.35800
N1057       N  0.92040584  0.75070788  0.39378342    -0.28000
C1058       C  0.91359581  0.75208252  0.37857851    -0.03200
C1059       C  0.89640515  0.75091809  0.37984669     0.05400
C1060       C  0.89364802  0.74896302  0.39682092     0.03500
H1061       H  0.92085951  0.75411553  0.36749366     0.08600
H1062       H  0.88177265  0.74761826  0.40295171     0.07400
N1063       N  0.92080657  0.75375032  0.52735526    -0.26900
N1064       N  0.93578336  0.75977729  0.52455123    -0.34800
C1065       C  0.93901637  0.75930151  0.50826069     0.01400
C1066       C  0.92546461  0.75269075  0.50010447     0.07400
C1067       C  0.91397868  0.74934740  0.51259975    -0.05700
H1068       H  0.95086876  0.76258872  0.50284951     0.08100
H1069       H  0.90217391  0.74309614  0.51120582     0.09300
Cu1070     Cu  0.95279567  0.76532713  0.54280451     0.44200
Cu1071     Cu  0.91282063  0.75060593  0.55194230     0.42000
Cu1072     Cu  0.94645530  0.75573933  0.58493999     0.43900
N1073       N  0.97182337  0.76555687  0.55987701    -0.34300
N1074       N  0.97019583  0.76130413  0.57562255    -0.28600
C1075       C  0.98544122  0.76149439  0.58278001    -0.04700
C1076       C  0.99701795  0.76621290  0.57080975     0.07500
C1077       C  0.98780862  0.76865355  0.55654231     0.01300
H1078       H  0.98791373  0.75842807  0.59562320     0.09000
H1079       H  0.99241658  0.77199297  0.54437493     0.08100
N1080       N  0.92087001  0.75245579  0.58931018    -0.35800
N1081       N  0.90925941  0.75048914  0.57779465    -0.28000
C1082       C  0.89436521  0.74922906  0.58530870    -0.03200
C1083       C  0.89642089  0.75066407  0.60241567     0.05400
C1084       C  0.91349671  0.75258948  0.60435561     0.03500
H1085       H  0.88293152  0.74737421  0.57856533     0.08600
H1086       H  0.92014972  0.75438283  0.61588081     0.07400
N1087       N  0.04252671  0.75739605  0.40778275    -0.26900
N1088       N  0.03984803  0.76263149  0.42307973    -0.34800
C1089       C  0.02356979  0.76224291  0.42637749     0.01400
C1090       C  0.01528777  0.75652657  0.41250901     0.07400
C1091       C  0.02769223  0.75359527  0.40078842    -0.05700
H1092       H  0.01824740  0.76491897  0.43843306     0.08100
H1093       H  0.02616806  0.74798431  0.38866933     0.09300
Cu1094     Cu  0.05833345  0.76677012  0.44013165     0.44200
Cu1095     Cu  0.06712993  0.75439450  0.39977399     0.42000
Cu1096     Cu  0.10022796  0.75612981  0.43408924     0.43900
N1097       N  0.07506580  0.76572996  0.45933817    -0.34300
N1098       N  0.09074746  0.76117471  0.45788202    -0.28600
C1099       C  0.09763878  0.76095936  0.47325934    -0.04700
C1100       C  0.08552958  0.76572661  0.48470911     0.07500
C1101       C  0.07148744  0.76857830  0.47530035     0.01300
H1102       H  0.11041054  0.75770927  0.47588948     0.09000
H1103       H  0.05931690  0.77218395  0.47971678     0.08100
N1104       N  0.10449305  0.75410166  0.40835959    -0.35800
N1105       N  0.09301873  0.75370816  0.39654942    -0.28000
C1106       C  0.10063632  0.75298616  0.38168207    -0.03200
C1107       C  0.11776901  0.75286492  0.38395422     0.05400
C1108       C  0.11960536  0.75353428  0.40116277     0.03500
H1109       H  0.09399125  0.75272016  0.37002701     0.08600
H1110       H  0.13099755  0.75349360  0.40821288     0.07400
N1111       N  0.04217079  0.76528270  0.57791264    -0.26900
N1112       N  0.04102482  0.77267564  0.56334094    -0.34800
C1113       C  0.02502774  0.77457863  0.55926767     0.01400
C1114       C  0.01530495  0.76808303  0.57181105     0.07400
C1115       C  0.02659825  0.76232016  0.58360447    -0.05700
H1116       H  0.02083966  0.77953848  0.54751078     0.08100
H1117       H  0.02373108  0.75575193  0.59496338     0.09300
Cu1118     Cu  0.06079323  0.77662630  0.54768074     0.44200
Cu1119     Cu  0.06579928  0.75903261  0.58698726     0.42000
Cu1120     Cu  0.09970776  0.75814434  0.55388404     0.43900
N1121       N  0.07709999  0.77240904  0.52848812    -0.34300
N1122       N  0.09146984  0.76466656  0.53002538    -0.28600
C1123       C  0.09753768  0.76157367  0.51460465    -0.04700
C1124       C  0.08618410  0.76760718  0.50300802     0.07500
C1125       C  0.07352992  0.77441198  0.51239858     0.01300
H1126       H  0.10881497  0.75471760  0.51203425     0.09000
H1127       H  0.06199052  0.77963003  0.50791431     0.08100
N1128       N  0.10320516  0.75577776  0.57967351    -0.35800
N1129       N  0.09143966  0.75628737  0.59119590    -0.28000
C1130       C  0.09864344  0.75554229  0.60628652    -0.03200
C1131       C  0.11581073  0.75440486  0.60440465     0.05400
C1132       C  0.11807244  0.75459059  0.58725308     0.03500
H1133       H  0.09168046  0.75634820  0.61771280     0.08600
H1134       H  0.12972987  0.75412221  0.58060505     0.07400
N1135       N  0.77115192  0.08189671  0.45554631    -0.26900
N1136       N  0.77781470  0.06696122  0.45665895    -0.34800
C1137       C  0.78096469  0.06343987  0.47259603     0.01400
C1138       C  0.77596412  0.07671782  0.48228036     0.07400
C1139       C  0.76981036  0.08833109  0.47104219    -0.05700
H1140       H  0.78563743  0.05158712  0.47685304     0.08100
H1141       H  0.76425629  0.10022389  0.47395190     0.09300
Cu1142     Cu  0.77889481  0.05039567  0.43723663     0.44200
Cu1143     Cu  0.76390432  0.09086536  0.43222595     0.42000
Cu1144     Cu  0.76059355  0.05841826  0.39825401     0.43900
N1145       N  0.77180705  0.03176935  0.42126199    -0.34300
N1146       N  0.76446043  0.03416064  0.40680041    -0.28600
C1147       C  0.75937482  0.01925808  0.40086492    -0.04700
C1148       C  0.76364443  0.00713156  0.41240761     0.07500
C1149       C  0.77145422  0.01560819  0.42507619     0.01300
H1150       H  0.75212613  0.01754030  0.38968348     0.09000
H1151       H  0.77573324  0.01052483  0.43675529     0.08100
N1152       N  0.75992859  0.08424892  0.39483431    -0.35800
N1153       N  0.76089488  0.09555609  0.40675743    -0.28000
C1154       C  0.76060866  0.11075793  0.39981222    -0.03200
C1155       C  0.75950977  0.10920383  0.38259429     0.05400
C1156       C  0.75906914  0.09207644  0.38007860     0.03500
H1157       H  0.76127770  0.12199150  0.40707551     0.08600
H1158       H  0.75843371  0.08559073  0.36833985     0.07400
N1159       N  0.77091564  0.08213189  0.52739006    -0.26900
N1160       N  0.77807754  0.06742598  0.52638265    -0.34800
C1161       C  0.78126089  0.06377960  0.51047173     0.01400
C1162       C  0.77586843  0.07678740  0.50067731     0.07400
C1163       C  0.76935671  0.08833965  0.51182729    -0.05700
H1164       H  0.78651664  0.05211658  0.50634024     0.08100
H1165       H  0.76350238  0.10005530  0.50881815     0.09300
Cu1166     Cu  0.78103697  0.05174266  0.54625312     0.44200
Cu1167     Cu  0.76355914  0.09098553  0.55080410     0.42000
Cu1168     Cu  0.76295166  0.05848108  0.58547972     0.43900
N1169       N  0.77839041  0.03307572  0.56337457    -0.34300
N1170       N  0.77085352  0.03459595  0.57785940    -0.28600
C1171       C  0.76919745  0.01917712  0.58451250    -0.04700
C1172       C  0.77600340  0.00764340  0.57343618     0.07500
C1173       C  0.78173556  0.01709587  0.56035591     0.01300
H1174       H  0.76284906  0.01648398  0.59604403     0.09000
H1175       H  0.78714953  0.01264770  0.54888703     0.08100
N1176       N  0.75918376  0.08439400  0.58829729    -0.35800
N1177       N  0.75959258  0.09560376  0.57623765    -0.28000
C1178       C  0.75805530  0.11086618  0.58297502    -0.03200
C1179       C  0.75650400  0.10951505  0.60016580     0.05400
C1180       C  0.75725754  0.09241236  0.60290802     0.03500
H1181       H  0.75874098  0.12208286  0.57568931     0.08600
H1182       H  0.75686890  0.08612840  0.61475603     0.07400
N1183       N  0.76449104  0.91272405  0.53040835    -0.26900
N1184       N  0.77091163  0.92755126  0.52768924    -0.34800
C1185       C  0.77055574  0.93087866  0.51140569     0.01400
C1186       C  0.76360005  0.91756794  0.50309162     0.07400
C1187       C  0.75994410  0.90610342  0.51556079    -0.05700
H1188       H  0.77421279  0.94266171  0.50610024     0.08100
H1189       H  0.75343998  0.89444841  0.51407223     0.09300
Cu1190     Cu  0.77678672  0.94436970  0.54612171     0.44200
Cu1191     Cu  0.76117576  0.90482190  0.55517434     0.42000
Cu1192     Cu  0.76628928  0.93864629  0.58820115     0.43900
N1193       N  0.77651356  0.96364847  0.56302857    -0.34300
N1194       N  0.77180775  0.96228950  0.57867469    -0.28600
C1195       C  0.77106590  0.97773870  0.58540474    -0.04700
C1196       C  0.77561998  0.98919424  0.57325146     0.07500
C1197       C  0.77899947  0.97965368  0.55935751     0.01300
H1198       H  0.76721061  0.98044647  0.59799433     0.09000
H1199       H  0.78227475  0.98404286  0.54709724     0.08100
N1200       N  0.76251329  0.91317529  0.59269017    -0.35800
N1201       N  0.76055403  0.90149000  0.58122138    -0.28000
C1202       C  0.75877942  0.88672896  0.58890055    -0.03200
C1203       C  0.75986116  0.88896302  0.60603810     0.05400
C1204       C  0.76212362  0.90599656  0.60782785     0.03500
H1205       H  0.75679483  0.87525132  0.58226028     0.08600
H1206       H  0.76379001  0.91273132  0.61933529     0.07400
N1207       N  0.75483835  0.91292512  0.45826439    -0.26900
N1208       N  0.75379002  0.92911422  0.46063903    -0.34800
C1209       C  0.75605215  0.93266036  0.47670494     0.01400
C1210       C  0.75863767  0.91809127  0.48531922     0.07400
C1211       C  0.75768886  0.90564296  0.47323215    -0.05700
H1212       H  0.75643543  0.94515275  0.48165215     0.08100
H1213       H  0.75985433  0.89250689  0.47504139     0.09300
Cu1214     Cu  0.75175448  0.94649967  0.44215193     0.44200
Cu1215     Cu  0.75384278  0.90376936  0.43360067     0.42000
Cu1216     Cu  0.75582245  0.93798285  0.40016998     0.43900
N1217       N  0.75399186  0.96510069  0.42491426    -0.34300
N1218       N  0.75571612  0.96247628  0.40883685    -0.28600
C1219       C  0.75844256  0.97725451  0.40128560    -0.04700
C1220       C  0.75861035  0.98954971  0.41345317     0.07500
C1221       C  0.75575253  0.98129092  0.42818129     0.01300
H1222       H  0.76116955  0.97878633  0.38821736     0.09000
H1223       H  0.75571992  0.98656312  0.44055071     0.08100
N1224       N  0.75439564  0.91230582  0.39611347    -0.35800
N1225       N  0.75331286  0.90039148  0.40744722    -0.28000
C1226       C  0.75216791  0.88566501  0.39947426    -0.03200
C1227       C  0.75257749  0.88828291  0.38235232     0.05400
C1228       C  0.75412513  0.90540503  0.38088777     0.03500
H1229       H  0.75112110  0.87386386  0.40577998     0.08600
H1230       H  0.75534312  0.91257422  0.36963310     0.07400
C1231       C  0.84638010  0.75430146  0.32704518     0.03500
C1232       C  0.84706349  0.74232255  0.31430118    -0.12700
C1233       C  0.83506421  0.74182058  0.30160690     0.01000
C1234       C  0.82234074  0.75386452  0.30156448    -0.11200
C1235       C  0.82150055  0.76620594  0.31396313     0.03500
C1236       C  0.83361089  0.76629741  0.32662817    -0.10600
H1237       H  0.85697971  0.73323653  0.31432512     0.09100
H1238       H  0.81277480  0.75333086  0.29212319     0.06600
H1239       H  0.83321424  0.77592209  0.33602528     0.06400
C1240       C  0.75364213  0.83825859  0.32949643     0.03500
C1241       C  0.74150807  0.83825241  0.31691592    -0.12700
C1242       C  0.74215848  0.82677773  0.30374228     0.01000
C1243       C  0.75522616  0.81514045  0.30320679    -0.11200
C1244       C  0.76744194  0.81473850  0.31574172     0.03500
C1245       C  0.76660821  0.82651220  0.32870270    -0.10600
H1246       H  0.73153863  0.84729511  0.31731348     0.09100
H1247       H  0.75565870  0.80614117  0.29319872     0.06600
H1248       H  0.77633424  0.82680419  0.33798535     0.06400
C1249       C  0.66691710  0.84221454  0.23993026     0.03500
C1250       C  0.67888586  0.84087977  0.25265977    -0.12700
C1251       C  0.69216103  0.82954430  0.25147285     0.01000
C1252       C  0.69299499  0.81887689  0.23766084    -0.11200
C1253       C  0.68098069  0.81956951  0.22500062     0.03500
C1254       C  0.66806903  0.83136292  0.22619940    -0.10600
H1255       H  0.67796168  0.84873824  0.26354106     0.09100
H1256       H  0.70270710  0.80957031  0.23709010     0.06600
H1257       H  0.65901353  0.83218956  0.21628661     0.06400
C1258       C  0.66965171  0.75388100  0.15015113     0.03500
C1259       C  0.68161907  0.74117319  0.15172384    -0.12700
C1260       C  0.69413117  0.74200550  0.16394305     0.01000
C1261       C  0.69428468  0.75554929  0.17502615    -0.11200
C1262       C  0.68219332  0.76814090  0.17401228     0.03500
C1263       C  0.67015684  0.76731867  0.16136622    -0.10600
H1264       H  0.68118701  0.73053607  0.14350230     0.09100
H1265       H  0.70349145  0.75599439  0.18483054     0.06600
H1266       H  0.66114971  0.77725961  0.16023446     0.06400
C1267       C  0.75513915  0.66376580  0.15478459     0.03500
C1268       C  0.74275693  0.67612185  0.15542287    -0.12700
C1269       C  0.74357111  0.68916199  0.16703725     0.01000
C1270       C  0.75697906  0.68968205  0.17822583    -0.11200
C1271       C  0.76935463  0.67730510  0.17802781     0.03500
C1272       C  0.76841532  0.66452886  0.16612691    -0.10600
H1273       H  0.73257451  0.67575114  0.14663974     0.09100
H1274       H  0.75779983  0.69979056  0.18707855     0.06600
H1275       H  0.77812808  0.65522161  0.16564257     0.06400
C1276       C  0.84872374  0.66536046  0.23779964     0.03500
C1277       C  0.84903213  0.67817188  0.24979271    -0.12700
C1278       C  0.83687476  0.69081217  0.24990506     0.01000
C1279       C  0.82419603  0.69033023  0.23792189    -0.11200
C1280       C  0.82382598  0.67797162  0.22560086     0.03500
C1281       C  0.83621259  0.66563294  0.22556092    -0.10600
H1282       H  0.85866417  0.67821864  0.25917791     0.09100
H1283       H  0.81440687  0.69954680  0.23824135     0.06600
H1284       H  0.83597333  0.65611564  0.21606873     0.06400
C1285       C  0.34808435  0.25417947  0.15379256     0.03500
C1286       C  0.33652059  0.26730763  0.15468940    -0.12700
C1287       C  0.32385041  0.26745084  0.16674628     0.01000
C1288       C  0.32295404  0.25421482  0.17817225    -0.11200
C1289       C  0.33422521  0.24084582  0.17739728     0.03500
C1290       C  0.34667859  0.24095120  0.16513393    -0.10600
H1291       H  0.33719974  0.27732197  0.14575296     0.09100
H1292       H  0.31327881  0.25416869  0.18753209     0.06600
H1293       H  0.35519809  0.23057623  0.16435088     0.06400
C1294       C  0.34517299  0.16143001  0.23652532     0.03500
C1295       C  0.34436727  0.17403571  0.22438717    -0.12700
C1296       C  0.33195083  0.18638076  0.22500726     0.01000
C1297       C  0.31987785  0.18568386  0.23764598    -0.11200
C1298       C  0.32053928  0.17334307  0.24996839     0.03500
C1299       C  0.33329633  0.16142406  0.24939364    -0.10600
H1300       H  0.35354619  0.17440454  0.21455192     0.09100
H1301       H  0.31013702  0.19497548  0.23810060     0.06600
H1302       H  0.33399406  0.15217021  0.25911978     0.06400
C1303       C  0.25929380  0.34308556  0.15261435     0.03500
C1304       C  0.27224622  0.33121598  0.15324315    -0.12700
C1305       C  0.27242222  0.31865789  0.16544823     0.01000
C1306       C  0.25976330  0.31842630  0.17747014    -0.11200
C1307       C  0.24667517  0.32996085  0.17706806     0.03500
C1308       C  0.24645458  0.34209867  0.16450129    -0.10600
H1309       H  0.28213854  0.33162272  0.14413308     0.09100
H1310       H  0.26000177  0.30907823  0.18713917     0.06600
H1311       H  0.23620959  0.35078197  0.16401524     0.06400
C1312       C  0.17040304  0.33966781  0.24058933     0.03500
C1313       C  0.18275667  0.33973430  0.22821239    -0.12700
C1314       C  0.19544773  0.32771901  0.22807657     0.01000
C1315       C  0.19550442  0.31527147  0.24031628    -0.11200
C1316       C  0.18333589  0.31491544  0.25285751     0.03500
C1317       C  0.17081867  0.32716768  0.25284796    -0.10600
H1318       H  0.18247743  0.34910941  0.21857687     0.09100
H1319       H  0.20486482  0.30560697  0.23983967     0.06600
H1320       H  0.16149934  0.32710804  0.26256073     0.06400
C1321       C  0.25921957  0.16039928  0.32793661     0.03500
C1322       C  0.27165714  0.16082418  0.31557820    -0.12700
C1323       C  0.27146757  0.17296324  0.30302125     0.01000
C1324       C  0.25913163  0.18531371  0.30328614    -0.11200
C1325       C  0.24676541  0.18541637  0.31559434     0.03500
C1326       C  0.24681382  0.17284112  0.32778897    -0.10600
H1327       H  0.28152383  0.15168128  0.31563303     0.09100
H1328       H  0.25907547  0.19482320  0.29376427     0.06600
H1329       H  0.23718000  0.17279003  0.33718494     0.06400
C1330       C  0.17100147  0.24916320  0.32716360     0.03500
C1331       C  0.17124660  0.26181506  0.31511737    -0.12700
C1332       C  0.18359942  0.26230039  0.30273950     0.01000
C1333       C  0.19614544  0.25005233  0.30281559    -0.11200
C1334       C  0.19614395  0.23725376  0.31475109     0.03500
C1335       C  0.18340571  0.23683630  0.32672105    -0.10600
H1336       H  0.16192928  0.27152227  0.31558149     0.09100
H1337       H  0.20567678  0.25021318  0.29331234     0.06600
H1338       H  0.18318456  0.22686522  0.33574295     0.06400
N1339       N  0.92306347  0.46581600  0.22915198    -0.26900
N1340       N  0.93886611  0.46726564  0.22503800    -0.34800
C1341       C  0.94244473  0.48320500  0.22207278     0.01400
C1342       C  0.92830843  0.49262364  0.22449721     0.07400
C1343       C  0.91612616  0.48118766  0.22904423    -0.05700
H1344       H  0.95471381  0.48764106  0.21888623     0.08100
H1345       H  0.90328946  0.48383919  0.23202047     0.09300
Cu1346     Cu  0.95582177  0.44818689  0.22542632     0.44200
Cu1347     Cu  0.91343777  0.44205256  0.23427873     0.42000
Cu1348     Cu  0.94588679  0.40730412  0.23567949     0.43900
N1349       N  0.97379879  0.43091863  0.23091619    -0.34300
N1350       N  0.97062019  0.41534247  0.23486083    -0.28600
C1351       C  0.98501486  0.40796794  0.23951713    -0.04700
C1352       C  0.99764110  0.41972401  0.23859266     0.07500
C1353       C  0.98997377  0.43404591  0.23314206     0.01300
H1354       H  0.98599841  0.39547947  0.24436480     0.09000
H1355       H  0.99559309  0.44616504  0.23172390     0.08100
N1356       N  0.91999132  0.40436459  0.23663947    -0.35800
N1357       N  0.90870066  0.41637774  0.23654204    -0.28000
C1358       C  0.89350300  0.40943825  0.23769502    -0.03200
C1359       C  0.89510860  0.39221179  0.23843653     0.05400
C1360       C  0.91217668  0.38962891  0.23773742     0.03500
H1361       H  0.88219178  0.41663577  0.23816470     0.08600
H1362       H  0.91860510  0.37783593  0.23790206     0.07400
N1363       N  0.92252828  0.53799015  0.22607086    -0.26900
N1364       N  0.93679726  0.53645305  0.21812441    -0.34800
C1365       C  0.94029401  0.52035236  0.21591159     0.01400
C1366       C  0.92768916  0.51095180  0.22274409     0.07400
C1367       C  0.91646030  0.52255955  0.22904915    -0.05700
H1368       H  0.95172257  0.51584432  0.21045248     0.08100
H1369       H  0.90526540  0.51997389  0.23601306     0.09300
Cu1370     Cu  0.95294796  0.55567275  0.21336115     0.44200
Cu1371     Cu  0.91428035  0.56182283  0.23304982     0.42000
Cu1372     Cu  0.94842543  0.59457176  0.23160728     0.43900
N1373       N  0.97258771  0.57183408  0.21573236    -0.34300
N1374       N  0.97163194  0.58624576  0.22347560    -0.28600
C1375       C  0.98721857  0.59213682  0.22575959    -0.04700
C1376       C  0.99835852  0.58063714  0.21918224     0.07500
C1377       C  0.98852270  0.56808015  0.21287132     0.01300
H1378       H  0.99024510  0.60320092  0.23276331     0.09000
H1379       H  0.99266167  0.55634600  0.20778012     0.08100
N1380       N  0.92308276  0.59891762  0.23553883    -0.35800
N1381       N  0.91109608  0.58765855  0.23615248    -0.28000
C1382       C  0.89642927  0.59562930  0.23774839    -0.03200
C1383       C  0.89914139  0.61273561  0.23807596     0.05400
C1384       C  0.91629369  0.61415346  0.23660560     0.03500
H1385       H  0.88459300  0.58932315  0.23820109     0.08600
H1386       H  0.92353009  0.62536661  0.23554783     0.07400
N1387       N  0.04195555  0.41386536  0.24658519    -0.26900
N1388       N  0.03916940  0.42863801  0.25317891    -0.34800
C1389       C  0.02293355  0.43216883  0.25227612     0.01400
C1390       C  0.01484305  0.41899010  0.24489231     0.07400
C1391       C  0.02727219  0.40747151  0.24146094    -0.05700
H1392       H  0.01758463  0.44405662  0.25559137     0.08100
H1393       H  0.02594948  0.39605602  0.23449003     0.09300
Cu1394     Cu  0.05747093  0.44542888  0.25924395     0.44200
Cu1395     Cu  0.06636924  0.40547419  0.24294764     0.42000
Cu1396     Cu  0.09911994  0.43852076  0.24747744     0.43900
N1397       N  0.07430022  0.46451221  0.25671838    -0.34300
N1398       N  0.08984176  0.46243958  0.25188895    -0.28600
C1399       C  0.09648623  0.47753650  0.24868292    -0.04700
C1400       C  0.08435274  0.48952361  0.25148930     0.07500
C1401       C  0.07052819  0.48072754  0.25653349     0.01300
H1402       H  0.10864927  0.47951686  0.24332844     0.09000
H1403       H  0.05820197  0.48565298  0.25869640     0.08100
N1404       N  0.10365762  0.41313969  0.24370034    -0.35800
N1405       N  0.09214635  0.40154088  0.24183191    -0.28000
C1406       C  0.09970225  0.38670922  0.23999020    -0.03200
C1407       C  0.11684231  0.38886059  0.24094432     0.05400
C1408       C  0.11873511  0.40588572  0.24320409     0.03500
H1409       H  0.09298722  0.37525962  0.23814264     0.08600
H1410       H  0.13025256  0.41258023  0.24484291     0.07400
N1411       N  0.08974957  0.53401423  0.24293632    -0.26900
N1412       N  0.07436269  0.53132107  0.23794379    -0.34800
C1413       C  0.07049528  0.51528841  0.24007280     0.01400
C1414       C  0.08414817  0.50716676  0.24647350     0.07400
C1415       C  0.09627101  0.51937940  0.24810314    -0.05700
H1416       H  0.05847182  0.50996280  0.23731237     0.08100
H1417       H  0.10857446  0.51787002  0.25328434     0.09300
Cu1418     Cu  0.05861489  0.54943376  0.22929974     0.44200
Cu1419     Cu  0.09926291  0.55837793  0.24313180     0.42000
Cu1420     Cu  0.06672577  0.59174893  0.23475836     0.43900
N1421       N  0.04099784  0.56732155  0.22486364    -0.34300
N1422       N  0.04308599  0.58326548  0.22799624    -0.28600
C1423       C  0.02826979  0.59105332  0.22614816    -0.04700
C1424       C  0.01653245  0.57925379  0.22144278     0.07500
C1425       C  0.02518573  0.56446585  0.22069901     0.01300
H1426       H  0.02614394  0.60414325  0.22833846     0.09000
H1427       H  0.02016961  0.55224038  0.21830177     0.08100
N1428       N  0.09220829  0.59566898  0.23860546    -0.35800
N1429       N  0.10367470  0.58416308  0.24142605    -0.28000
C1430       C  0.11862057  0.59168802  0.24255094    -0.03200
C1431       C  0.11659786  0.60872225  0.24024823     0.05400
C1432       C  0.09962428  0.61062230  0.23785382     0.03500
H1433       H  0.13006778  0.58511977  0.24500202     0.08600
H1434       H  0.09306448  0.62207168  0.23532877     0.07400
N1435       N  0.04315844  0.24640538  0.40259334    -0.26900
N1436       N  0.04057900  0.25125428  0.41803215    -0.34800
C1437       C  0.02441260  0.25005398  0.42172082     0.01400
C1438       C  0.01602660  0.24441210  0.40789520     0.07400
C1439       C  0.02829765  0.24221379  0.39583574    -0.05700
H1440       H  0.01919413  0.25262275  0.43384591     0.08100
H1441       H  0.02666090  0.23713497  0.38349968     0.09300
Cu1442     Cu  0.05924434  0.25750742  0.43417649     0.44200
Cu1443     Cu  0.06786492  0.24509758  0.39402178     0.42000
Cu1444     Cu  0.10167549  0.25045094  0.42760692     0.43900
N1445       N  0.07630090  0.25833176  0.45302837    -0.34300
N1446       N  0.09221053  0.25471762  0.45151831    -0.28600
C1447       C  0.09891180  0.25381543  0.46696273    -0.04700
C1448       C  0.08636876  0.25701230  0.47850272     0.07500
C1449       C  0.07237727  0.25992628  0.46905027     0.01300
H1450       H  0.11163468  0.25038507  0.46960383     0.09000
H1451       H  0.05986641  0.26207611  0.47344118     0.08100
N1452       N  0.10539960  0.24849231  0.40181167    -0.35800
N1453       N  0.09379248  0.24648435  0.39027617    -0.28000
C1454       C  0.10120104  0.24600033  0.37526573    -0.03200
C1455       C  0.11827545  0.24794352  0.37720337     0.05400
C1456       C  0.12032861  0.24943390  0.39429257     0.03500
H1457       H  0.09443100  0.24417374  0.36384422     0.08600
H1458       H  0.13186196  0.25132638  0.40090127     0.07400
N1459       N  0.04316564  0.24812067  0.57459356    -0.26900
N1460       N  0.04048079  0.25094252  0.55868886    -0.34800
C1461       C  0.02420817  0.25037953  0.55550527     0.01400
C1462       C  0.01580291  0.24707772  0.57006620     0.07400
C1463       C  0.02822963  0.24576593  0.58210532    -0.05700
H1464       H  0.01892323  0.25169376  0.54322100     0.08100
H1465       H  0.02659677  0.24246881  0.59502499     0.09300
Cu1466     Cu  0.05879156  0.25367691  0.54125628     0.44200
Cu1467     Cu  0.06806066  0.24669925  0.58271676     0.42000
Cu1468     Cu  0.10116820  0.24846762  0.54771045     0.43900
N1469       N  0.07555407  0.25444164  0.52215097    -0.34300
N1470       N  0.09168012  0.25209109  0.52372820    -0.28600
C1471       C  0.09866294  0.25274357  0.50839120    -0.04700
C1472       C  0.08608081  0.25572435  0.49685418     0.07500
C1473       C  0.07173043  0.25670786  0.50619107     0.01300
H1474       H  0.11175660  0.25111338  0.50583425     0.09000
H1475       H  0.05919856  0.25861047  0.50176113     0.08100
N1476       N  0.10548927  0.24707854  0.57343519    -0.35800
N1477       N  0.09421360  0.24650786  0.58546225    -0.28000
C1478       C  0.10219617  0.24621102  0.60017785    -0.03200
C1479       C  0.11930472  0.24663114  0.59753295     0.05400
C1480       C  0.12074516  0.24720756  0.58031463     0.03500
H1481       H  0.09584489  0.24576325  0.61199848     0.08600
H1482       H  0.13197234  0.24811496  0.57305363     0.07400
N1483       N  0.97084900  0.24048045  0.40385652    -0.26900
N1484       N  0.97356154  0.23428827  0.41879419    -0.34800
C1485       C  0.98994573  0.23374021  0.42168419     0.01400
C1486       C  0.99824167  0.23973684  0.40791570     0.07400
C1487       C  0.98571884  0.24392697  0.39673322    -0.05700
H1488       H  0.99540871  0.23028324  0.43346526     0.08100
H1489       H  0.98725434  0.25019833  0.38495468     0.09300
Cu1490     Cu  0.95513197  0.22989614  0.43612443     0.44200
Cu1491     Cu  0.94634643  0.24528783  0.39619404     0.42000
Cu1492     Cu  0.91366951  0.24317900  0.43025605     0.43900
N1493       N  0.93812080  0.23114584  0.45533082    -0.34300
N1494       N  0.92279112  0.23679864  0.45385447    -0.28600
C1495       C  0.91602709  0.23802473  0.46924751    -0.04700
C1496       C  0.92783196  0.23290393  0.48082474     0.07500
C1497       C  0.94155028  0.22857759  0.47139603     0.01300
H1498       H  0.90377182  0.24289501  0.47185866     0.09000
H1499       H  0.95358061  0.22465175  0.47589966     0.08100
N1500       N  0.90906767  0.24674278  0.40477399    -0.35800
N1501       N  0.92047457  0.24737505  0.39291129    -0.28000
C1502       C  0.91277404  0.24876114  0.37811984    -0.03200
C1503       C  0.89562346  0.24909426  0.38053745     0.05400
C1504       C  0.89391858  0.24778625  0.39771061     0.03500
H1505       H  0.91943575  0.24890588  0.36649581     0.08600
H1506       H  0.88245955  0.24735960  0.40469627     0.07400
N1507       N  0.97059076  0.24302524  0.57626216    -0.26900
N1508       N  0.97272689  0.23800393  0.56081394    -0.34800
C1509       C  0.98887046  0.23810445  0.55699892     0.01400
C1510       C  0.99777398  0.24334210  0.57066106     0.07400
C1511       C  0.98577487  0.24633187  0.58285484    -0.05700
H1512       H  0.99371146  0.23520463  0.54479537     0.08100
H1513       H  0.98784733  0.25141979  0.59512082     0.09300
Cu1514     Cu  0.95391392  0.23344504  0.54432821     0.44200
Cu1515     Cu  0.94599398  0.24594122  0.58479295     0.42000
Cu1516     Cu  0.91262350  0.24378676  0.54994992     0.43900
N1517       N  0.93751849  0.23336633  0.52490048    -0.34300
N1518       N  0.92185103  0.23799361  0.52607520    -0.28600
C1519       C  0.91530180  0.23825832  0.51052448    -0.04700
C1520       C  0.92767329  0.23351928  0.49927426     0.07500
C1521       C  0.94144726  0.23051122  0.50902000     0.01300
H1522       H  0.90272633  0.24197408  0.50758231     0.09000
H1523       H  0.95378599  0.22718634  0.50486581     0.08100
N1524       N  0.90851832  0.24650036  0.57579547    -0.35800
N1525       N  0.91991197  0.24697022  0.58771422    -0.28000
C1526       C  0.91211884  0.24792463  0.60251729    -0.03200
C1527       C  0.89498305  0.24808442  0.60010752     0.05400
C1528       C  0.89334567  0.24725947  0.58287710     0.03500
H1529       H  0.91862286  0.24819844  0.61425454     0.08600
H1530       H  0.88201988  0.24719002  0.57572425     0.07400
C1531       C  0.66830617  0.25060714  0.15354593     0.03500
C1532       C  0.66913448  0.23758552  0.16527213    -0.12700
C1533       C  0.68146525  0.23732197  0.17774895     0.01000
C1534       C  0.69316530  0.25029771  0.17827470    -0.11200
C1535       C  0.69253409  0.26344089  0.16681790     0.03500
C1536       C  0.67998130  0.26358094  0.15468055    -0.10600
H1537       H  0.66033129  0.22745171  0.16454140     0.09100
H1538       H  0.70248840  0.25051773  0.18796891     0.06600
H1539       H  0.67933998  0.27390915  0.14610881     0.06400
C1540       C  0.66931772  0.16042671  0.24059082     0.03500
C1541       C  0.66980432  0.17276331  0.22823705    -0.12700
C1542       C  0.68172163  0.18553978  0.22866624     0.01000
C1543       C  0.69369628  0.18544080  0.24145902    -0.11200
C1544       C  0.69357129  0.17304400  0.25384186     0.03500
C1545       C  0.68114516  0.16081385  0.25342056    -0.10600
H1546       H  0.66094239  0.17228964  0.21812890     0.09100
H1547       H  0.70288727  0.19523999  0.24201244     0.06600
H1548       H  0.68070714  0.15154732  0.26314671     0.06400
C1549       C  0.75317528  0.34189236  0.15638796     0.03500
C1550       C  0.76587067  0.34150574  0.16846545    -0.12700
C1551       C  0.76647751  0.32893275  0.18059145     0.01000
C1552       C  0.75451894  0.31624252  0.18021885    -0.11200
C1553       C  0.74175859  0.31628649  0.16832694     0.03500
C1554       C  0.74091803  0.32938199  0.15677786    -0.10600
H1555       H  0.77540866  0.35097657  0.16843411     0.09100
H1556       H  0.75513441  0.30627247  0.18922601     0.06600
H1557       H  0.73074868  0.32966505  0.14799482     0.06400
C1558       C  0.75663582  0.16047222  0.33096969     0.03500
C1559       C  0.74410488  0.16021858  0.31873781    -0.12700
C1560       C  0.74332794  0.17258402  0.30639907     0.01000
C1561       C  0.75521087  0.18538844  0.30645955    -0.11200
C1562       C  0.76779163  0.18598088  0.31854461     0.03500
C1563       C  0.76831900  0.17350738  0.33080016    -0.10600
H1564       H  0.73496102  0.15036663  0.31877332     0.09100
H1565       H  0.75472296  0.19489868  0.29695635     0.06600
H1566       H  0.77791072  0.17391508  0.34022105     0.06400
C1567       C  0.84430032  0.34018394  0.24237047     0.03500
C1568       C  0.83170452  0.34008804  0.23022295    -0.12700
C1569       C  0.81921949  0.32789295  0.23015261     0.01000
C1570       C  0.81941113  0.31554210  0.24249211    -0.11200
C1571       C  0.83189831  0.31515241  0.25472475     0.03500
C1572       C  0.84415425  0.32768524  0.25467797    -0.10600
H1573       H  0.83153409  0.34964406  0.22077723     0.09100
H1574       H  0.80970154  0.30624459  0.24262537     0.06600
H1575       H  0.85349733  0.32773251  0.26433679     0.06400
C1576       C  0.84188287  0.25128301  0.33130465     0.03500
C1577       C  0.82938357  0.23906911  0.33079439    -0.12700
C1578       C  0.81697167  0.23926424  0.31844762     0.01000
C1579       C  0.81727583  0.25190960  0.30633643    -0.11200
C1580       C  0.82969761  0.26426240  0.30650373     0.03500
C1581       C  0.84188428  0.26376002  0.31904030    -0.10600
H1582       H  0.82944950  0.22914831  0.33986137     0.09100
H1583       H  0.80796221  0.25201373  0.29663300     0.06600
H1584       H  0.85161064  0.27302840  0.31910836     0.06400
C1585       C  0.83177456  0.30193906  0.26783347    -0.05100
C1586       C  0.83410021  0.30625521  0.28459446    -0.32500
C1587       C  0.83332670  0.29425117  0.29721465     0.36700
C1588       C  0.83032252  0.27739021  0.29330344    -0.05500
C1589       C  0.82817578  0.27304039  0.27651122    -0.32400
C1590       C  0.82899374  0.28505000  0.26388250     0.36600
H1591       H  0.83611679  0.31911198  0.28801191     0.17000
O1592       O  0.83517926  0.29927513  0.31338888    -0.59900
H1593       H  0.82616035  0.26018097  0.27309945     0.17000
O1594       O  0.82730712  0.28004361  0.24767964    -0.60000
H1595       H  0.83881654  0.27864347  0.24350119     0.44000
H1596       H  0.82371167  0.30065193  0.31769543     0.43900
C1597       C  0.78041911  0.19960042  0.31824135    -0.05100
C1598       C  0.77539582  0.21624161  0.31631187    -0.32500
C1599       C  0.78705925  0.22923739  0.31621669     0.36700
C1600       C  0.80417680  0.22577850  0.31797414    -0.05500
C1601       C  0.80916929  0.20911549  0.31963721    -0.32400
C1602       C  0.79754411  0.19615011  0.31965930     0.36600
H1603       H  0.76231853  0.21922946  0.31519500     0.17000
O1604       O  0.78152650  0.24528632  0.31476257    -0.59900
H1605       H  0.82223834  0.20608073  0.32070886     0.17000
O1606       O  0.80313188  0.18009310  0.32076631    -0.60000
H1607       H  0.80446739  0.17631554  0.30910547     0.44000
H1608       H  0.77935274  0.24902965  0.32630624     0.43900
C1609       C  0.80577925  0.32821509  0.21735287    -0.05100
C1610       C  0.78911799  0.32606998  0.22215056    -0.32500
C1611       C  0.77625773  0.32640986  0.21040098     0.36700
C1612       C  0.77986464  0.32883274  0.19340739    -0.05500
C1613       C  0.79649202  0.33107860  0.18861989    -0.32400
C1614       C  0.80935906  0.33065678  0.20034951     0.36600
H1615       H  0.78600599  0.32437391  0.23513259     0.17000
O1616       O  0.76017684  0.32459283  0.21573248    -0.59900
H1617       H  0.79958418  0.33278993  0.17563491     0.17000
O1618       O  0.82543514  0.33226997  0.19495598    -0.60000
H1619       H  0.82936995  0.32074860  0.19298304     0.44000
H1620       H  0.75580466  0.33606293  0.21685569     0.43900
C1621       C  0.70634842  0.17275789  0.26729485    -0.05100
C1622       C  0.70154368  0.17063164  0.28397819    -0.32500
C1623       C  0.71338356  0.17029645  0.29679242     0.36700
C1624       C  0.73042552  0.17208257  0.29309347    -0.05500
C1625       C  0.73522121  0.17388575  0.27639853    -0.32400
C1626       C  0.72341833  0.17408659  0.26359945     0.36600
H1627       H  0.68851076  0.16950377  0.28713555     0.17000
O1628       O  0.70810731  0.16857128  0.31290079    -0.59900
H1629       H  0.74825681  0.17497340  0.27323278     0.17000
O1630       O  0.72876466  0.17528348  0.24746866    -0.60000
H1631       H  0.72929143  0.16367921  0.24335507     0.44000
H1632       H  0.70662201  0.18007087  0.31708360     0.43900
C1633       C  0.68173473  0.22384735  0.19059591    -0.05100
C1634       C  0.66684939  0.21892051  0.19827949    -0.32500
C1635       C  0.66670547  0.20671290  0.21071378     0.36700
C1636       C  0.68162650  0.19889678  0.21570672    -0.05500
C1637       C  0.69653443  0.20384034  0.20806483    -0.32400
C1638       C  0.69667057  0.21605133  0.19559430     0.36600
H1639       H  0.65524552  0.22483749  0.19488608     0.17000
O1640       O  0.65187495  0.20277323  0.21811303    -0.59900
H1641       H  0.70813304  0.19795066  0.21152265     0.17000
O1642       O  0.71148068  0.22001134  0.18817325    -0.60000
H1643       H  0.71196789  0.21307823  0.17800143     0.44000
H1644       H  0.65161563  0.20930042  0.22855778     0.43900
C1645       C  0.70506757  0.27704211  0.16748542    -0.05100
C1646       C  0.72209828  0.27318812  0.16765045    -0.32500
C1647       C  0.73412517  0.28579529  0.16781052     0.36700
C1648       C  0.72925108  0.30264972  0.16800963    -0.05500
C1649       C  0.71222747  0.30648228  0.16791609    -0.32400
C1650       C  0.70021312  0.29388171  0.16776784     0.36600
H1651       H  0.72609698  0.26033548  0.16732444     0.17000
O1652       O  0.75061507  0.28149736  0.16745881    -0.59900
H1653       H  0.70821563  0.31932811  0.16823683     0.17000
O1654       O  0.68373189  0.29817903  0.16817630    -0.60000
H1655       H  0.68059555  0.29783742  0.18009915     0.44000
H1656       H  0.75363050  0.28119916  0.15550636     0.43900
C1657       C  0.88194967  0.24978696  0.36776815    -0.05100
C1658       C  0.86539413  0.24650047  0.37249272    -0.32500
C1659       C  0.85228834  0.24704926  0.36095794     0.36700
C1660       C  0.85544626  0.25068198  0.34408947    -0.05500
C1661       C  0.87191504  0.25397779  0.33935237    -0.32400
C1662       C  0.88499091  0.25365070  0.35087968     0.36600
H1663       H  0.86241721  0.24347918  0.38523237     0.17000
O1664       O  0.83640436  0.24427944  0.36645595    -0.59900
H1665       H  0.87479958  0.25672504  0.32650311     0.17000
O1666       O  0.90058332  0.25768022  0.34541232    -0.60000
H1667       H  0.90461175  0.24769858  0.33938492     0.44000
H1668       H  0.83208467  0.25537347  0.36963198     0.43900
C1669       C  0.88182501  0.37916291  0.23981128    -0.05100
C1670       C  0.88618184  0.36279327  0.24425077    -0.32500
C1671       C  0.87427130  0.35009016  0.24518699     0.36700
C1672       C  0.85734896  0.35352445  0.24207860    -0.05500
C1673       C  0.85293092  0.36992815  0.23792231    -0.32400
C1674       C  0.86488812  0.38253325  0.23652994     0.36600
H1675       H  0.89895921  0.35962527  0.24692618     0.17000
O1676       O  0.87948823  0.33427188  0.24874711    -0.59900
H1677       H  0.84005708  0.37307339  0.23559851     0.17000
O1678       O  0.85972820  0.39800189  0.23167616    -0.60000
H1679       H  0.86046917  0.39792592  0.21938392     0.44000
H1680       H  0.88187965  0.32910470  0.23781721     0.43900
C1681       C  0.15761190  0.24878483  0.34003706    -0.05100
C1682       C  0.14099101  0.25127493  0.33536460    -0.32500
C1683       C  0.12810825  0.25103827  0.34713727     0.36700
C1684       C  0.13161847  0.24826899  0.36414586    -0.05500
C1685       C  0.14834323  0.24590668  0.36877396    -0.32400
C1686       C  0.16120183  0.24624000  0.35698905     0.36600
H1687       H  0.13790749  0.25334336  0.32242924     0.17000
O1688       O  0.11224963  0.25419513  0.34183079    -0.59900
H1689       H  0.15160769  0.24374040  0.38162324     0.17000
O1690       O  0.17728637  0.24435498  0.36228054    -0.60000
H1691       H  0.18140643  0.25579679  0.36419848     0.44000
H1692       H  0.10855520  0.24381470  0.33630680     0.43900
C1693       C  0.23374509  0.19864392  0.31547004    -0.05100
C1694       C  0.23835627  0.21549076  0.31504464    -0.32500
C1695       C  0.22630482  0.22813499  0.31474140     0.36700
C1696       C  0.20924963  0.22409659  0.31468828    -0.05500
C1697       C  0.20466694  0.20724835  0.31499846    -0.32400
C1698       C  0.21671098  0.19462086  0.31527138     0.22200
H1699       H  0.25138147  0.21886204  0.31517426     0.17000
O1700       O  0.23134757  0.24440216  0.31481387    -0.59900
H1701       H  0.19165069  0.20385087  0.31480677     0.17000
O1702       O  0.21168348  0.17835666  0.31500249    -0.60000
H1703       H  0.21185834  0.17511267  0.30310977     0.44000
H1704       H  0.23106920  0.24783048  0.32664886     0.43900
C1705       C  0.18351722  0.30155410  0.26575847    -0.05100
C1706       C  0.16879428  0.29304870  0.26968839    -0.32500
C1707       C  0.16868439  0.28020757  0.28147124     0.36700
C1708       C  0.18344216  0.27570087  0.28985811    -0.05500
C1709       C  0.19816535  0.28421209  0.28592423    -0.32400
C1710       C  0.19827968  0.29702973  0.27410726     0.36600
H1711       H  0.15734468  0.29613317  0.26332435     0.17000
O1712       O  0.15409787  0.27193391  0.28442608    -0.59900
H1713       H  0.20961767  0.28112294  0.29227811     0.17000
O1714       O  0.21288415  0.30522859  0.27103875    -0.60000
H1715       H  0.21244936  0.31534261  0.27808380     0.44000
H1716       H  0.15458779  0.26188471  0.27729129     0.43900
C1717       C  0.13036715  0.37599913  0.24046652    -0.05100
C1718       C  0.14695394  0.38094299  0.23785445    -0.32500
C1719       C  0.16004630  0.36940325  0.23801390     0.36700
C1720       C  0.15681105  0.35235904  0.24050466    -0.05500
C1721       C  0.14029297  0.34735983  0.24298014    -0.32400
C1722       C  0.12721920  0.35890254  0.24309811     0.36600
H1723       H  0.14993648  0.39386767  0.23574636     0.17000
O1724       O  0.17599983  0.37503391  0.23604790    -0.59900
H1725       H  0.13744570  0.33434415  0.24483527     0.17000
O1726       O  0.11148259  0.35318252  0.24605789    -0.60000
H1727       H  0.11014059  0.35360926  0.25829352     0.44000
H1728       H  0.18007251  0.37723582  0.24746273     0.43900
C1729       C  0.20859919  0.32813278  0.21504814    -0.05100
C1730       C  0.20419875  0.32963301  0.19822136    -0.32500
C1731       C  0.21637902  0.33008548  0.18575804     0.36700
C1732       C  0.23338216  0.32934026  0.18998629    -0.05500
C1733       C  0.23775390  0.32778438  0.20682480    -0.32400
C1734       C  0.22558112  0.32721029  0.21926397     0.36600
H1735       H  0.19122328  0.33016664  0.19469320     0.17000
O1736       O  0.21147742  0.33092102  0.16946721    -0.59900
H1737       H  0.25071715  0.32727679  0.21040048     0.17000
O1738       O  0.23046018  0.32604020  0.23554473    -0.60000
H1739       H  0.23089826  0.33766649  0.23964355     0.44000
H1740       H  0.21169012  0.31927268  0.16541575     0.43900
C1741       C  0.30805611  0.17306052  0.26364549    -0.05100
C1742       C  0.29101716  0.17268269  0.25990982    -0.32500
C1743       C  0.27907424  0.17234699  0.27261063     0.36700
C1744       C  0.28402087  0.17267772  0.28942143    -0.05500
C1745       C  0.30105558  0.17288586  0.29316809    -0.32400
C1746       C  0.31300770  0.17315839  0.28046305     0.36600
H1747       H  0.28696580  0.17240819  0.24707896     0.17000
O1748       O  0.26257393  0.17147570  0.26845907    -0.59900
H1749       H  0.30509659  0.17317260  0.30600094     0.17000
O1750       O  0.32950956  0.17383550  0.28462851    -0.60000
H1751       H  0.33249617  0.18577811  0.28403173     0.44000
H1752       H  0.25969225  0.15953209  0.26921461     0.43900
C1753       C  0.31092610  0.28084378  0.16673353    -0.05100
C1754       C  0.29406978  0.27651044  0.16799036    -0.32500
C1755       C  0.28154967  0.28860826  0.16737283     0.36700
C1756       C  0.28564229  0.30557926  0.16565092    -0.05500
C1757       C  0.30249322  0.30996391  0.16434867    -0.32400
C1758       C  0.31505426  0.29782177  0.16498014     0.36600
H1759       H  0.29051738  0.26358114  0.16905923     0.17000
O1760       O  0.26528390  0.28361423  0.16812793    -0.59900
H1761       H  0.30596677  0.32290391  0.16316221     0.17000
O1762       O  0.33133013  0.30275505  0.16413383    -0.60000
H1763       H  0.33486749  0.30422661  0.17584777     0.44000
H1764       H  0.26172649  0.28242446  0.15640142     0.43900
C1765       C  0.33305424  0.22676911  0.18943228    -0.05100
C1766       C  0.33199176  0.23003002  0.20655352    -0.32500
C1767       C  0.33154783  0.21703794  0.21816155     0.36700
C1768       C  0.33197100  0.20033966  0.21280231    -0.05500
C1769       C  0.33286477  0.19705694  0.19567429    -0.32400
C1770       C  0.33328401  0.21005647  0.18405442     0.36600
H1771       H  0.33193238  0.24273943  0.21098930     0.17000
O1772       O  0.33117587  0.22083012  0.23477461    -0.59900
H1773       H  0.33309075  0.18433580  0.19127647     0.17000
O1774       O  0.33375397  0.20625473  0.16744522    -0.60000
H1775       H  0.32216227  0.20728165  0.16357931     0.44000
H1776       H  0.34289527  0.22063177  0.23838040     0.43900
C1777       C  0.86149733  0.65177816  0.23804152    -0.05100
C1778       C  0.87825091  0.65562289  0.24099721    -0.32500
C1779       C  0.89054821  0.64322606  0.24127745     0.36700
C1780       C  0.88634486  0.62637168  0.23844396    -0.05500
C1781       C  0.86948754  0.62254239  0.23576414    -0.32400
C1782       C  0.85719138  0.63495571  0.23556842     0.36600
H1783       H  0.88193837  0.66840271  0.24300692     0.17000
O1784       O  0.90650951  0.64781571  0.24496690    -0.59900
H1785       H  0.86564322  0.60984152  0.23371777     0.17000
O1786       O  0.84087381  0.63036979  0.23378904    -0.60000
H1787       H  0.83979620  0.62646137  0.22215101     0.44000
H1788       H  0.91075542  0.65329269  0.23479595     0.43900
C1789       C  0.78331140  0.67768015  0.19021028    -0.05100
C1790       C  0.79977451  0.67542987  0.18477720    -0.32500
C1791       C  0.81306306  0.67558160  0.19606184     0.36700
C1792       C  0.81005053  0.67775002  0.21320379    -0.05500
C1793       C  0.79358880  0.67999770  0.21860004    -0.32400
C1794       C  0.78033907  0.67996463  0.20733015     0.36600
H1795       H  0.80238182  0.67382123  0.17166918     0.17000
O1796       O  0.82895326  0.67392761  0.19013134    -0.59900
H1797       H  0.79092223  0.68153487  0.23170476     0.17000
O1798       O  0.76447851  0.68186191  0.21326542    -0.60000
H1799       H  0.76056671  0.67043983  0.21570017     0.44000
H1800       H  0.83308145  0.68545215  0.18873607     0.43900
C1801       C  0.70684524  0.72853699  0.16530016    -0.05100
C1802       C  0.70187125  0.71180469  0.16571997    -0.32500
C1803       C  0.71361780  0.69893560  0.16670559     0.36700
C1804       C  0.73076264  0.70259597  0.16701411    -0.05500
C1805       C  0.73571896  0.71932912  0.16687858    -0.32400
C1806       C  0.72397546  0.73219691  0.16598020     0.36600
H1807       H  0.68878353  0.70869784  0.16545709     0.17000
O1808       O  0.70817194  0.68282089  0.16751593    -0.59900
H1809       H  0.74880543  0.72245023  0.16702071     0.17000
O1810       O  0.72942839  0.74831323  0.16533101    -0.60000
H1811       H  0.73046888  0.75087677  0.15332785     0.44000
H1812       H  0.70829605  0.67997648  0.17950986     0.43900
C1813       C  0.68134544  0.80724589  0.21110074    -0.05100
C1814       C  0.66681173  0.79850841  0.20702951    -0.32500
C1815       C  0.66695422  0.78590102  0.19500158     0.36700
C1816       C  0.68176718  0.78185939  0.18652001    -0.05500
C1817       C  0.69627886  0.79078159  0.19035656    -0.32400
C1818       C  0.69612899  0.80343366  0.20240634     0.36600
H1819       H  0.65536060  0.80105676  0.21363790     0.17000
O1820       O  0.65261697  0.77720510  0.19204811    -0.59900
H1821       H  0.70776453  0.78799569  0.18390317     0.17000
O1822       O  0.71050101  0.81201700  0.20553271    -0.60000
H1823       H  0.70980025  0.82212687  0.19853717     0.44000
H1824       H  0.65273738  0.76794143  0.20016471     0.43900
C1825       C  0.70504817  0.82868501  0.26479860    -0.05100
C1826       C  0.70025761  0.82795410  0.28157842    -0.32500
C1827       C  0.71215479  0.82712792  0.29429341     0.36700
C1828       C  0.72926185  0.82712815  0.29042947    -0.05500
C1829       C  0.73406218  0.82777869  0.27366026    -0.32400
C1830       C  0.72216875  0.82869386  0.26094366     0.36600
H1831       H  0.68720341  0.82779454  0.28484907     0.17000
O1832       O  0.70689611  0.82611909  0.31046832    -0.59900
H1833       H  0.74712476  0.82796969  0.27041892     0.17000
O1834       O  0.72745207  0.82997791  0.24479472    -0.60000
H1835       H  0.72741290  0.84203736  0.24234969     0.44000
H1836       H  0.70706306  0.81410229  0.31315925     0.43900
C1837       C  0.83578758  0.72868929  0.28841773    -0.05100
C1838       C  0.83297136  0.73294171  0.27172205    -0.32500
C1839       C  0.83343633  0.72088607  0.25909092     0.36700
C1840       C  0.83689889  0.70410038  0.26295097    -0.05500
C1841       C  0.83989767  0.69989182  0.27962360    -0.32400
C1842       C  0.83924152  0.71189742  0.29225145     0.36600
H1843       H  0.83058014  0.74575287  0.26837205     0.17000
O1844       O  0.83123206  0.72579107  0.24291560    -0.59900
H1845       H  0.84229960  0.68709282  0.28300052     0.17000
O1846       O  0.84159315  0.70691166  0.30836205    -0.60000
H1847       H  0.83023308  0.70531987  0.31295424     0.44000
H1848       H  0.81939385  0.72920245  0.24207760     0.43900
C1849       C  0.80762173  0.77862154  0.31413102    -0.05100
C1850       C  0.79892027  0.78167971  0.32897011    -0.32500
C1851       C  0.78576706  0.79312296  0.32958089     0.36700
C1852       C  0.78113705  0.80211899  0.31524943    -0.05500
C1853       C  0.78973196  0.79896038  0.30034463    -0.32400
C1854       C  0.80284036  0.78741164  0.29971075     0.36600
H1855       H  0.80213368  0.77490364  0.34013929     0.17000
O1856       O  0.77731150  0.79514909  0.34423828    -0.59900
H1857       H  0.78648613  0.80571634  0.28917427     0.17000
O1858       O  0.81107061  0.78506468  0.28497216    -0.60000
H1859       H  0.82075580  0.79266893  0.28543784     0.44000
H1860       H  0.76745408  0.78781569  0.34331700     0.43900
C1861       C  0.75217545  0.87549525  0.36871904    -0.05100
C1862       C  0.75509188  0.85864395  0.37245469    -0.32500
C1863       C  0.75534946  0.84644039  0.35995969     0.36700
C1864       C  0.75295847  0.85086555  0.34317055    -0.05500
C1865       C  0.74967610  0.86758138  0.33942841    -0.32400
C1866       C  0.74905616  0.87974058  0.35191877     0.36600
H1867       H  0.75733171  0.85479480  0.38512698     0.17000
O1868       O  0.75778909  0.83017377  0.36438536    -0.59900
H1869       H  0.74765354  0.87132334  0.32666355     0.17000
O1870       O  0.74522466  0.89568567  0.34739172    -0.60000
H1871       H  0.73295700  0.89642462  0.34820276     0.44000
H1872       H  0.74653808  0.82518442  0.36465784     0.43900
C1873       C  0.75903673  0.12259157  0.36952403    -0.05100
C1874       C  0.75657340  0.11822698  0.35272500    -0.32500
C1875       C  0.75593915  0.13027385  0.34014033     0.36700
C1876       C  0.75749860  0.14728072  0.34405418    -0.05500
C1877       C  0.76012553  0.15171585  0.36071886    -0.32400
C1878       C  0.76103005  0.13968346  0.37330521     0.36600
H1879       H  0.75512871  0.10538031  0.34911456     0.17000
O1880       O  0.75403081  0.12517942  0.32399127    -0.59900
H1881       H  0.76137003  0.16468465  0.36409298     0.17000
O1882       O  0.76377549  0.14500804  0.38922282    -0.60000
H1883       H  0.77600066  0.14583926  0.39027165     0.44000
H1884       H  0.76545068  0.12447612  0.31944420     0.43900
C1885       C  0.88369523  0.75189914  0.36619485    -0.05100
C1886       C  0.86692770  0.75520640  0.37002862    -0.32500
C1887       C  0.85473233  0.75614649  0.35755057     0.36700
C1888       C  0.85910020  0.75406432  0.34067347    -0.05500
C1889       C  0.87583264  0.75084736  0.33683579    -0.32400
C1890       C  0.88793896  0.74950509  0.34928787     0.36600
H1891       H  0.86312632  0.75705561  0.38279089     0.17000
O1892       O  0.83851911  0.75874238  0.36210990    -0.59900
H1893       H  0.87961702  0.74920593  0.32402371     0.17000
O1894       O  0.90380881  0.74548794  0.34462277    -0.60000
H1895       H  0.90436935  0.73320761  0.34527827     0.44000
H1896       H  0.83357704  0.74750018  0.36297115     0.43900
C1897       C  0.28081452  0.82578470  0.29304261    -0.05100
C1898       C  0.29773025  0.82632011  0.29724234    -0.32500
C1899       C  0.31000974  0.82669753  0.28489258     0.36700
C1900       C  0.30551476  0.82682219  0.26795015    -0.05500
C1901       C  0.28857375  0.82627490  0.26375070    -0.32400
C1902       C  0.27628867  0.82583654  0.27611706     0.36600
H1903       H  0.30144322  0.82618314  0.31017756     0.17000
O1904       O  0.32639722  0.82663856  0.28953816    -0.59900
H1905       H  0.28484745  0.82645725  0.25082077     0.17000
O1906       O  0.25988117  0.82574431  0.27152246    -0.60000
H1907       H  0.25621898  0.83747795  0.27232295     0.44000
H1908       H  0.32996381  0.81487953  0.28868841     0.43900
C1909       C  0.33191095  0.77759063  0.19166832    -0.05100
C1910       C  0.33173783  0.79440953  0.18701225    -0.32500
C1911       C  0.33109307  0.80704567  0.19904530     0.36700
C1912       C  0.33080377  0.80300207  0.21608649    -0.05500
C1913       C  0.33104093  0.78618611  0.22072571    -0.32400
C1914       C  0.33171372  0.77356666  0.20871071     0.36600
H1915       H  0.33178905  0.79774679  0.17397742     0.17000
O1916       O  0.33046471  0.82329930  0.19401061    -0.59900
H1917       H  0.33100233  0.78282639  0.23375684     0.17000
O1918       O  0.33243798  0.75732051  0.21376140    -0.60000
H1919       H  0.34446283  0.75490059  0.21515903     0.44000
H1920       H  0.31843273  0.82602792  0.19336606     0.43900
C1921       C  0.20578542  0.77436783  0.31834046    -0.05100
C1922       C  0.22267426  0.77006165  0.31726930    -0.32500
C1923       C  0.23508221  0.78231146  0.31774372     0.36700
C1924       C  0.23073821  0.79927471  0.31910428    -0.05500
C1925       C  0.21385540  0.80354487  0.32015101    -0.32400
C1926       C  0.20147269  0.79132293  0.31965770     0.36600
H1927       H  0.22627325  0.75711770  0.31639944     0.17000
O1928       O  0.25143058  0.77752369  0.31713058    -0.59900
H1929       H  0.21021609  0.81647749  0.32100201     0.17000
O1930       O  0.18513305  0.79613642  0.32019238    -0.60000
H1931       H  0.18163040  0.79694129  0.30842464     0.44000
H1932       H  0.25526527  0.77762610  0.32881966     0.43900
C1933       C  0.15499895  0.74983327  0.34469669    -0.05100
C1934       C  0.15977101  0.75299944  0.36119577    -0.32500
C1935       C  0.14799197  0.75433983  0.37399101     0.36700
C1936       C  0.13087979  0.75198289  0.37065153    -0.05500
C1937       C  0.12618761  0.74881662  0.35406482    -0.32400
C1938       C  0.13794870  0.74797334  0.34122090     0.36600
H1939       H  0.17278377  0.75455256  0.36424272     0.17000
O1940       O  0.15352929  0.75813491  0.38962062    -0.59900
H1941       H  0.11328895  0.74705546  0.35081145     0.17000
O1942       O  0.13252026  0.74572552  0.32523100    -0.60000
H1943       H  0.13085909  0.75707710  0.32076905     0.44000
H1944       H  0.15370054  0.77043969  0.39008783     0.43900
C1945       C  0.17775223  0.69984088  0.26666123    -0.05100
C1946       C  0.19260437  0.70278896  0.27534150    -0.32500
C1947       C  0.19331323  0.71441654  0.28833017     0.36700
C1948       C  0.17908701  0.72367010  0.29278279    -0.05500
C1949       C  0.16416061  0.72061480  0.28420798    -0.32400
C1950       C  0.16343202  0.70890025  0.27125033     0.36600
H1951       H  0.20369905  0.69583169  0.27219651     0.17000
O1952       O  0.20795502  0.71642278  0.29678671    -0.59900
H1953       H  0.15307788  0.72759759  0.28733870     0.17000
O1954       O  0.14873322  0.70666724  0.26293714    -0.60000
H1955       H  0.14929685  0.71428031  0.25326519     0.44000
H1956       H  0.20723732  0.70868642  0.30636193     0.43900
C1957       C  0.15285254  0.64885980  0.23977804    -0.05100
C1958       C  0.15782371  0.63241278  0.23649698    -0.32500
C1959       C  0.14635590  0.61922635  0.23671623     0.36700
C1960       C  0.12940250  0.62226049  0.24019940    -0.05500
C1961       C  0.12446304  0.63875696  0.24333847    -0.32400
C1962       C  0.13589017  0.65190408  0.24304632     0.36600
H1963       H  0.17074517  0.62968848  0.23389033     0.17000
O1964       O  0.15182137  0.60356920  0.23281671    -0.59900
H1965       H  0.11161051  0.64159785  0.24608973     0.17000
O1966       O  0.13020317  0.66774882  0.24571603    -0.60000
H1967       H  0.12862494  0.67254473  0.23448664     0.44000
H1968       H  0.15774943  0.59960701  0.24285788     0.43900
C1969       C  0.22836317  0.67763337  0.18965885    -0.05100
C1970       C  0.21154660  0.67628087  0.18512320    -0.32500
C1971       C  0.19893441  0.67592881  0.19718644     0.36700
C1972       C  0.20294108  0.67674811  0.21423723    -0.05500
C1973       C  0.21974884  0.67820160  0.21877489    -0.32400
C1974       C  0.23236571  0.67853512  0.20671506     0.36600
H1975       H  0.20813679  0.67570893  0.17211788     0.17000
O1976       O  0.18269550  0.67504809  0.19213078    -0.59900
H1977       H  0.22315519  0.67873141  0.23178379     0.17000
O1978       O  0.24860444  0.67934451  0.21179386    -0.60000
H1979       H  0.25253004  0.66766118  0.21198014     0.44000
H1980       H  0.17887516  0.68675401  0.19146204     0.43900
C1981       C  0.30568321  0.72711765  0.16570245    -0.05100
C1982       C  0.30963797  0.71019129  0.16399936    -0.32500
C1983       C  0.29717930  0.69801301  0.16362132     0.36700
C1984       C  0.28027863  0.70255900  0.16484329    -0.05500
C1985       C  0.27629208  0.71949426  0.16650059    -0.32400
C1986       C  0.28876416  0.73169826  0.16679341     0.36600
H1987       H  0.32251201  0.70632985  0.16324524     0.17000
O1988       O  0.30172128  0.68164015  0.16237390    -0.59900
H1989       H  0.26340674  0.72331861  0.16727297     0.17000
O1990       O  0.28422709  0.74809359  0.16781321    -0.60000
H1991       H  0.28335477  0.75192231  0.15613241     0.44000
H1992       H  0.30276906  0.67769731  0.17401090     0.43900
C1993       C  0.38249873  0.87728120  0.24516019    -0.05100
C1994       C  0.36581592  0.88169502  0.24804304    -0.32500
C1995       C  0.35298586  0.86997739  0.24691984     0.36700
C1996       C  0.35656348  0.85321791  0.24319719    -0.05500
C1997       C  0.37318010  0.84876482  0.24013501    -0.32400
C1998       C  0.38601026  0.86056526  0.24091608     0.36600
H1999       H  0.36255954  0.89433302  0.25126208     0.17000
O2000       O  0.33692682  0.87517998  0.24926234    -0.59900
H2001       H  0.37630255  0.83600145  0.23720470     0.17000
O2002       O  0.40186608  0.85552176  0.23729665    -0.60000
H2003       H  0.40314546  0.85733327  0.22518001     0.44000
H2004       H  0.33253488  0.87727882  0.23794482     0.43900
C2005       C  0.62710916  0.87886309  0.24278407    -0.05100
C2006       C  0.64342385  0.88292315  0.24752773    -0.32500
C2007       C  0.65637844  0.87130196  0.24648422     0.36700
C2008       C  0.65327534  0.85493112  0.24094455    -0.05500
C2009       C  0.63697966  0.85086697  0.23606657    -0.32400
C2010       C  0.62406624  0.86263635  0.23676952     0.36600
H2011       H  0.64627396  0.89522310  0.25213844     0.17000
O2012       O  0.67212183  0.87629211  0.25063471    -0.59900
H2013       H  0.63417430  0.83845637  0.23169509     0.17000
O2014       O  0.60861461  0.85811717  0.23124783    -0.60000
H2015       H  0.60816619  0.86182807  0.21951443     0.44000
H2016       H  0.67760158  0.87893896  0.23993446     0.43900
C2017       C  0.63009050  0.12347793  0.24093178    -0.05100
C2018       C  0.64678700  0.11882305  0.24342487    -0.32500
C2019       C  0.65964811  0.13058194  0.24316289     0.36700
C2020       C  0.65606433  0.14748946  0.24039001    -0.05500
C2021       C  0.63951397  0.15216106  0.23754605    -0.32400
C2022       C  0.62663665  0.14044325  0.23778497     0.36600
H2023       H  0.65005972  0.10600202  0.24571056     0.17000
O2024       O  0.67577367  0.12529830  0.24487123    -0.59900
H2025       H  0.63645661  0.16507832  0.23531284     0.17000
O2026       O  0.61084346  0.14578735  0.23436374    -0.60000
H2027       H  0.60709933  0.15165889  0.24453980     0.44000
H2028       H  0.67686894  0.12180449  0.25663239     0.43900
C2029       C  0.38486061  0.12461808  0.23682538    -0.05100
C2030       C  0.36830866  0.12006902  0.24013147    -0.32500
C2031       C  0.35535547  0.13171448  0.23959607     0.36700
C2032       C  0.35867175  0.14857811  0.23613848    -0.05500
C2033       C  0.37514030  0.15314536  0.23251387    -0.32400
C2034       C  0.38807991  0.14139147  0.23264109     0.36600
H2035       H  0.36523889  0.10738182  0.24327157     0.17000
O2036       O  0.33942575  0.12634123  0.24231038    -0.59900
H2037       H  0.37808842  0.16596726  0.22972960     0.17000
O2038       O  0.40375925  0.14655131  0.22851728    -0.60000
H2039       H  0.40462843  0.14482562  0.21635131     0.44000
H2040       H  0.33484184  0.12406341  0.23110777     0.43900
C2041       C  0.25940883  0.14722639  0.34116602    -0.05100
C2042       C  0.25621707  0.15149215  0.35780567    -0.32500
C2043       C  0.25687343  0.13958239  0.37057652     0.36700
C2044       C  0.26087296  0.12282116  0.36699173    -0.05500
C2045       C  0.26357921  0.11850255  0.35023422    -0.32400
C2046       C  0.26284676  0.13041326  0.33746474     0.36600
H2047       H  0.25339535  0.16424793  0.36104710     0.17000
O2048       O  0.25296501  0.14448091  0.38641118    -0.59900
H2049       H  0.26643074  0.10581079  0.34685649     0.17000
O2050       O  0.26473093  0.12530822  0.32129804    -0.60000
H2051       H  0.27653792  0.12192461  0.32023386     0.44000
H2052       H  0.26269710  0.15093052  0.39032803     0.43900
C2053       C  0.25655493  0.87651702  0.36908678    -0.05100
C2054       C  0.25927820  0.88039668  0.35224357    -0.32500
C2055       C  0.25846421  0.86819840  0.33981865     0.36700
C2056       C  0.25531812  0.85145823  0.34397465    -0.05500
C2057       C  0.25216798  0.84758345  0.36068701    -0.32400
C2058       C  0.25252669  0.85985554  0.37308836     0.36600
H2059       H  0.26213615  0.89296114  0.34849879     0.17000
O2060       O  0.26061526  0.87289858  0.32358825    -0.59900
H2061       H  0.24959097  0.83487744  0.36425910     0.17000
O2062       O  0.24887291  0.85522175  0.38903659    -0.60000
H2063       H  0.23678503  0.85714214  0.39026041     0.44000
H2064       H  0.24925524  0.87480304  0.31925229     0.43900
C2065       C  0.30521612  0.27497605  0.81523241    -0.05100
C2066       C  0.30884751  0.29199995  0.81664354    -0.32500
C2067       C  0.29614640  0.30397319  0.81688681     0.36700
C2068       C  0.27932556  0.29911218  0.81597212    -0.05500
C2069       C  0.27567770  0.28210168  0.81437462    -0.32400
C2070       C  0.28839129  0.27011647  0.81406473     0.36600
H2071       H  0.32164753  0.29607859  0.81733229     0.17000
O2072       O  0.30037065  0.32044879  0.81772182    -0.59900
H2073       H  0.26286975  0.27804813  0.81365946     0.17000
O2074       O  0.28417184  0.25365149  0.81295131    -0.60000
H2075       H  0.28432487  0.24948586  0.82454526     0.44000
H2076       H  0.29990186  0.32449169  0.80608675     0.43900
C2077       C  0.20421881  0.32415774  0.76409009    -0.05100
C2078       C  0.19908172  0.32621245  0.78066599    -0.32500
C2079       C  0.21057878  0.32591018  0.79378374     0.36700
C2080       C  0.22768862  0.32368392  0.79053568    -0.05500
C2081       C  0.23282358  0.32176343  0.77393948    -0.32400
C2082       C  0.22133557  0.32207975  0.76083290     0.36600
H2083       H  0.18601451  0.32773065  0.78351486     0.17000
O2084       O  0.20486083  0.32748653  0.80975685    -0.59900
H2085       H  0.24589272  0.32031753  0.77105893     0.17000
O2086       O  0.22705696  0.32065994  0.74484310    -0.60000
H2087       H  0.22893295  0.33222592  0.74106177     0.44000
H2088       H  0.20362158  0.31594449  0.81388572     0.43900
C2089       C  0.33539643  0.19947579  0.76561271    -0.05100
C2090       C  0.32012304  0.20322768  0.77322594    -0.32500
C2091       C  0.31897264  0.21537326  0.78570212     0.36700
C2092       C  0.33320952  0.22432641  0.79069230    -0.05500
C2093       C  0.34850751  0.22048871  0.78311567    -0.32400
C2094       C  0.34966431  0.20827091  0.77070527     0.36600
H2095       H  0.30902716  0.19651698  0.76964802     0.17000
O2096       O  0.30388278  0.21816131  0.79311206    -0.59900
H2097       H  0.35960810  0.22724168  0.78659170     0.17000
O2098       O  0.36476728  0.20530004  0.76338479    -0.60000
H2099       H  0.36497486  0.21249739  0.75337102     0.44000
H2100       H  0.30390603  0.21111257  0.80323558     0.43900
C2101       C  0.28735624  0.17565264  0.68792805    -0.05100
C2102       C  0.29187970  0.16069567  0.69570435    -0.32500
C2103       C  0.30405876  0.16030896  0.70812708     0.36700
C2104       C  0.31227920  0.17503369  0.71294492    -0.05500
C2105       C  0.30781676  0.19001098  0.70510081    -0.32400
C2106       C  0.29553659  0.19039453  0.69270483     0.36600
H2107       H  0.28566413  0.14923736  0.69236959     0.17000
O2108       O  0.30749306  0.14547711  0.71576317    -0.59900
H2109       H  0.31400871  0.20146768  0.70846716     0.17000
O2110       O  0.29181711  0.20521944  0.68519346    -0.60000
H2111       H  0.29877856  0.20550962  0.67502339     0.44000
H2112       H  0.30053973  0.14540862  0.72594440     0.43900
C2113       C  0.26264819  0.14928039  0.63704337    -0.05100
C2114       C  0.25879019  0.15342156  0.62052863    -0.32500
C2115       C  0.25952684  0.14151492  0.60778699     0.36700
C2116       C  0.26429967  0.12499547  0.61135080    -0.05500
C2117       C  0.26791907  0.12084703  0.62793640    -0.32400
C2118       C  0.26706409  0.13271336  0.64067312     0.36600
H2119       H  0.25527617  0.16602671  0.61739828     0.17000
O2120       O  0.25481626  0.14606991  0.59207341    -0.59900
H2121       H  0.27151817  0.10831915  0.63119665     0.17000
O2122       O  0.26972285  0.12776339  0.65676847    -0.60000
H2123       H  0.28172856  0.12507222  0.65746435     0.44000
H2124       H  0.26404296  0.15300105  0.58777912     0.43900
C2125       C  0.23440176  0.19861624  0.66336816    -0.05100
C2126       C  0.23816127  0.21559849  0.66469897    -0.32500
C2127       C  0.22559392  0.22766354  0.66427946     0.36700
C2128       C  0.20878738  0.22292802  0.66268643    -0.05500
C2129       C  0.20499186  0.20593748  0.66139700    -0.32400
C2130       C  0.21758622  0.19384701  0.66184531     0.36600
H2131       H  0.25097542  0.21957635  0.66569903     0.17000
O2132       O  0.22994163  0.24411080  0.66508251    -0.59900
H2133       H  0.19217323  0.20200112  0.66031641     0.17000
O2134       O  0.21327624  0.17738981  0.66104433    -0.60000
H2135       H  0.21225639  0.17376190  0.67275668     0.44000
H2136       H  0.23079118  0.24778674  0.65337680     0.43900
C2137       C  0.18210937  0.27385927  0.68702698    -0.05100
C2138       C  0.18114791  0.26945673  0.70388198    -0.32500
C2139       C  0.18035227  0.28167184  0.71630791     0.36700
C2140       C  0.18076625  0.29865697  0.71203793    -0.05500
C2141       C  0.18174086  0.30305313  0.69517957    -0.32400
C2142       C  0.18249207  0.29083509  0.68275127     0.36600
H2143       H  0.18069589  0.25647890  0.70740265     0.17000
O2144       O  0.17885816  0.27687530  0.73258139    -0.59900
H2145       H  0.18218480  0.31602842  0.69165345     0.17000
O2146       O  0.18384191  0.29561923  0.66646247    -0.60000
H2147       H  0.19596040  0.29586324  0.66416349     0.44000
H2148       H  0.16671960  0.27660162  0.73476225     0.43900
C2149       C  0.13278639  0.24693518  0.61049918    -0.05100
C2150       C  0.12854150  0.24977360  0.62724462    -0.32500
C2151       C  0.14061418  0.25007860  0.63982562     0.36700
C2152       C  0.15751409  0.24749080  0.63597549    -0.05500
C2153       C  0.16185826  0.24455281  0.61932652    -0.32400
C2154       C  0.14979227  0.24432620  0.60668607     0.36600
H2155       H  0.11575334  0.25182286  0.63080381     0.17000
O2156       O  0.13561756  0.25208129  0.65600747    -0.59900
H2157       H  0.17475477  0.24255531  0.61602028     0.17000
O2158       O  0.15486121  0.24099722  0.59078098    -0.60000
H2159       H  0.15973086  0.25153252  0.58666997     0.44000
H2160       H  0.13198477  0.26382185  0.65692285     0.43900
C2161       C  0.25247628  0.34973361  0.84194843    -0.05100
C2162       C  0.24897899  0.36621747  0.83728607    -0.32500
C2163       C  0.24918636  0.37922668  0.84893675     0.36700
C2164       C  0.25336169  0.37610161  0.86570287    -0.05500
C2165       C  0.25648818  0.35954545  0.87041776    -0.32400
C2166       C  0.25590841  0.34649463  0.85884215     0.36600
H2167       H  0.24621219  0.36913187  0.82445004     0.17000
O2168       O  0.24511620  0.39490305  0.84370404    -0.59900
H2169       H  0.25958697  0.35658843  0.88315254     0.17000
O2170       O  0.25856751  0.33058027  0.86429386    -0.60000
H2171       H  0.24739630  0.32622160  0.86704701     0.44000
H2172       H  0.23298297  0.39585358  0.84547528     0.43900
C2173       C  0.25430542  0.62791876  0.11243752    -0.05100
C2174       C  0.25135103  0.62349994  0.12912953    -0.32500
C2175       C  0.25127550  0.63540531  0.14188789     0.36700
C2176       C  0.25387393  0.65233918  0.13824584    -0.05500
C2177       C  0.25671051  0.65685256  0.12163476    -0.32400
C2178       C  0.25704977  0.64493343  0.10887461     0.36600
H2179       H  0.24914701  0.61069762  0.13250365     0.17000
O2180       O  0.24897953  0.63022295  0.15795012    -0.59900
H2181       H  0.25867595  0.66977669  0.11846613     0.17000
O2182       O  0.26020455  0.65024031  0.09303147    -0.60000
H2183       H  0.27246646  0.65031374  0.09203296     0.44000
H2184       H  0.26030768  0.62829991  0.16237053     0.43900
C2185       C  0.25812372  0.38034571  0.11327014    -0.05100
C2186       C  0.25383596  0.38456405  0.12970484    -0.32500
C2187       C  0.25422123  0.37274491  0.14257233     0.36700
C2188       C  0.25890856  0.35613199  0.13925941    -0.05500
C2189       C  0.26330229  0.35194194  0.12287065    -0.32400
C2190       C  0.26312867  0.36379060  0.11007197     0.36600
H2191       H  0.25009486  0.39712337  0.13272418     0.17000
O2192       O  0.25080357  0.37781190  0.15849697    -0.59900
H2193       H  0.26688372  0.33931942  0.11987024     0.17000
O2194       O  0.26820675  0.35895498  0.09456059    -0.60000
H2195       H  0.28025604  0.36153735  0.09415577     0.44000
H2196       H  0.23876044  0.38049633  0.15861531     0.43900
C2197       C  0.65516913  0.25077686  0.14027029    -0.05100
C2198       C  0.63881596  0.24591905  0.14402131    -0.32500
C2199       C  0.62625046  0.24600576  0.13187257     0.36700
C2200       C  0.62975188  0.25116359  0.11542652    -0.05500
C2201       C  0.64613805  0.25600031  0.11171532    -0.32400
C2202       C  0.65872477  0.25566307  0.12378080     0.36600
H2203       H  0.63565232  0.24207998  0.15651895     0.17000
O2204       O  0.61080282  0.24031063  0.13616660    -0.59900
H2205       H  0.64937315  0.26003753  0.09931593     0.17000
O2206       O  0.67457092  0.25979664  0.11910632    -0.60000
H2207       H  0.67996284  0.24912342  0.11611730     0.44000
H2208       H  0.60568105  0.24939952  0.14274516     0.43900
C2209       C  0.38521423  0.25321874  0.11455253    -0.05100
C2210       C  0.38946548  0.24881884  0.13092747    -0.32500
C2211       C  0.37766874  0.24918751  0.14379864     0.36700
C2212       C  0.36111193  0.25396319  0.14050897    -0.05500
C2213       C  0.35693520  0.25865844  0.12422818    -0.32400
C2214       C  0.36873371  0.25842789  0.11139618     0.36600
H2215       H  0.40199521  0.24494078  0.13387369     0.17000
O2216       O  0.38267150  0.24563783  0.15970165    -0.59900
H2217       H  0.34435447  0.26244458  0.12131688     0.17000
O2218       O  0.36410773  0.26407761  0.09601649    -0.60000
H2219       H  0.35675324  0.25534878  0.09138451     0.44000
H2220       H  0.38520433  0.23357787  0.15974843     0.43900
C2221       C  0.38303105  0.25294116  0.86606164    -0.05100
C2222       C  0.36638893  0.25649055  0.87013675    -0.32500
C2223       C  0.35373978  0.25584417  0.85813926     0.36700
C2224       C  0.35750694  0.25196513  0.84142678    -0.05500
C2225       C  0.37413971  0.24835977  0.83735978    -0.32400
C2226       C  0.38672607  0.24860678  0.84944735     0.36600
H2227       H  0.36304647  0.25977678  0.88274326     0.17000
O2228       O  0.33767208  0.25866564  0.86306462    -0.59900
H2229       H  0.37747210  0.24529185  0.82468505     0.17000
O2230       O  0.40252086  0.24421648  0.84483279    -0.60000
H2231       H  0.40337416  0.23217746  0.84726356     0.44000
H2232       H  0.33303867  0.24751731  0.86546416     0.43900
C2233       C  0.85715365  0.24977792  0.63908594    -0.05100
C2234       C  0.85267865  0.24666659  0.62249957    -0.32500
C2235       C  0.86462959  0.24594770  0.60978128     0.36700
C2236       C  0.88166114  0.24870977  0.61330172    -0.05500
C2237       C  0.88605750  0.25186823  0.62997804    -0.32400
C2238       C  0.87411319  0.25222327  0.64272551     0.36600
H2239       H  0.83975082  0.24473634  0.61931163     0.17000
O2240       O  0.85932613  0.24237789  0.59401998    -0.59900
H2241       H  0.89887258  0.25399316  0.63335930     0.17000
O2242       O  0.87927887  0.25459344  0.65878579    -0.60000
H2243       H  0.88199598  0.24335594  0.66298426     0.44000
H2244       H  0.85940179  0.23011328  0.59328965     0.43900
C2245       C  0.78050932  0.19982552  0.66368385    -0.05100
C2246       C  0.79730025  0.19528389  0.66194628    -0.32500
C2247       C  0.81001924  0.20722308  0.66268196     0.36700
C2248       C  0.80616157  0.22421409  0.66493837    -0.05500
C2249       C  0.78938150  0.22873700  0.66673557    -0.32400
C2250       C  0.77667414  0.21680655  0.66604907     0.36600
H2251       H  0.80062801  0.18233735  0.66035859     0.17000
O2252       O  0.82621650  0.20205977  0.66149272    -0.59900
H2253       H  0.78604179  0.24168128  0.66831546     0.17000
O2254       O  0.76049454  0.22198703  0.66738683    -0.60000
H2255       H  0.75664672  0.22356496  0.65579761     0.44000
H2256       H  0.82987963  0.20024799  0.67311162     0.43900
C2257       C  0.75513427  0.14842742  0.63804610    -0.05100
C2258       C  0.75329236  0.15249207  0.62121180    -0.32500
C2259       C  0.75323149  0.14012854  0.60883295     0.36700
C2260       C  0.75560251  0.12316276  0.61303956    -0.05500
C2261       C  0.75737211  0.11923937  0.63003556    -0.32400
C2262       C  0.75709451  0.13160864  0.64238170     0.36600
H2263       H  0.75158219  0.16535556  0.61764655     0.17000
O2264       O  0.75068450  0.14495009  0.59272669    -0.59900
H2265       H  0.75920367  0.10652884  0.63393990     0.17000
O2266       O  0.75900208  0.12711485  0.65869725    -0.60000
H2267       H  0.77114396  0.12743447  0.66072948     0.44000
H2268       H  0.73847915  0.14457076  0.59114160     0.43900
C2269       C  0.70390783  0.17569689  0.71370785    -0.05100
C2270       C  0.69958262  0.17387421  0.69686686    -0.32500
C2271       C  0.71177816  0.17360549  0.68435899     0.36700
C2272       C  0.72876648  0.17489068  0.68850687    -0.05500
C2273       C  0.73307847  0.17682444  0.70532922    -0.32400
C2274       C  0.72089181  0.17717364  0.71782489     0.36600
H2275       H  0.68663236  0.17290130  0.69334787     0.17000
O2276       O  0.70690475  0.17242483  0.66807972    -0.59900
H2277       H  0.74602659  0.17778269  0.70885990     0.17000
O2278       O  0.72578884  0.17860288  0.73407630    -0.60000
H2279       H  0.72751674  0.16703360  0.73795038     0.44000
H2280       H  0.70528669  0.18405827  0.66435474     0.43900
C2281       C  0.67805286  0.20088138  0.76511608    -0.05100
C2282       C  0.68039440  0.21762987  0.76067234    -0.32500
C2283       C  0.68058785  0.23030683  0.77269956     0.36700
C2284       C  0.67853390  0.22649407  0.78970277    -0.05500
C2285       C  0.67614198  0.20976665  0.79416035    -0.32400
C2286       C  0.67600763  0.19707227  0.78213100     0.36600
H2287       H  0.68184522  0.22098150  0.74772412     0.17000
O2288       O  0.68249809  0.24644208  0.76760776    -0.59900
H2289       H  0.67470565  0.20644719  0.80711893     0.17000
O2290       O  0.67427340  0.18093067  0.78725061    -0.60000
H2291       H  0.68577695  0.17680953  0.78892163     0.44000
H2292       H  0.67105896  0.25060992  0.76569423     0.43900
C2293       C  0.65310265  0.25288531  0.84082191    -0.05100
C2294       C  0.63642584  0.24976178  0.83659626    -0.32500
C2295       C  0.62371317  0.25017100  0.84862554     0.36700
C2296       C  0.62741754  0.25384073  0.86540792    -0.05500
C2297       C  0.64415101  0.25672708  0.86962725    -0.32400
C2298       C  0.65684490  0.25612533  0.85766117     0.36600
H2299       H  0.63313724  0.24710194  0.82382327     0.17000
O2300       O  0.60784400  0.24625821  0.84387265    -0.59900
H2301       H  0.64755217  0.25953186  0.88232341     0.17000
O2302       O  0.67294326  0.25842733  0.86272176    -0.60000
H2303       H  0.67740931  0.24709796  0.86456842     0.44000
H2304       H  0.60374159  0.25612818  0.83774470     0.43900
C2305       C  0.83154046  0.27571149  0.69047497    -0.05100
C2306       C  0.83019480  0.27106874  0.70726651    -0.32500
C2307       C  0.83080002  0.28295771  0.72006253     0.36700
C2308       C  0.83260739  0.29998942  0.71630882    -0.05500
C2309       C  0.83379667  0.30466596  0.69950732    -0.32400
C2310       C  0.83316880  0.29277291  0.68670220     0.36600
H2311       H  0.82906010  0.25807004  0.71053330     0.17000
O2312       O  0.83002271  0.27770739  0.73624205    -0.59900
H2313       H  0.83498890  0.31766634  0.69626267     0.17000
O2314       O  0.83390919  0.29803118  0.67052130    -0.60000
H2315       H  0.82215803  0.29914922  0.66695038     0.44000
H2316       H  0.84173379  0.27574005  0.73955970     0.43900
C2317       C  0.73019078  0.30250801  0.81595798    -0.05100
C2318       C  0.73425540  0.28571566  0.81330233    -0.32500
C2319       C  0.72196470  0.27332422  0.81311098     0.36700
C2320       C  0.70504345  0.27750604  0.81533324    -0.05500
C2321       C  0.70096697  0.29432141  0.81790214    -0.32400
C2322       C  0.71326384  0.30670541  0.81817068     0.36600
H2323       H  0.74712844  0.28207439  0.81181037     0.17000
O2324       O  0.72675793  0.25708709  0.81119958    -0.59900
H2325       H  0.68810422  0.29795806  0.81948802     0.17000
O2326       O  0.70849472  0.32291366  0.82040483    -0.60000
H2327       H  0.70780298  0.32767047  0.80904507     0.44000
H2328       H  0.72797491  0.25271799  0.82266471     0.43900
C2329       C  0.78340642  0.32698613  0.79318007    -0.05100
C2330       C  0.77926779  0.32558253  0.77626034    -0.32500
C2331       C  0.79155345  0.32537329  0.76386231     0.36700
C2332       C  0.80854637  0.32634748  0.76810635    -0.05500
C2333       C  0.81273714  0.32801388  0.78500757    -0.32400
C2334       C  0.80040633  0.32824563  0.79745003     0.36600
H2335       H  0.76634978  0.32489410  0.77256410     0.17000
O2336       O  0.78673047  0.32451098  0.74754950    -0.59900
H2337       H  0.82567116  0.32877297  0.78863493     0.17000
O2338       O  0.80518234  0.32931990  0.81376490    -0.60000
H2339       H  0.80664755  0.31765844  0.81746822     0.44000
H2340       H  0.78649452  0.33619163  0.74363786     0.43900
C2341       C  0.88589039  0.37485172  0.73974072    -0.05100
C2342       C  0.86916896  0.37934638  0.74248728    -0.32500
C2343       C  0.85647302  0.36741762  0.74320909     0.36700
C2344       C  0.86015286  0.35039488  0.74134827    -0.05500
C2345       C  0.87674803  0.34580559  0.73842198    -0.32400
C2346       C  0.88950128  0.35772900  0.73765414     0.36600
H2347       H  0.86570772  0.39221499  0.74412800     0.17000
O2348       O  0.84040653  0.37264599  0.74542872    -0.59900
H2349       H  0.87992053  0.33281825  0.73683802     0.17000
O2350       O  0.90532814  0.35237021  0.73440609    -0.60000
H2351       H  0.90949200  0.34789709  0.74510470     0.44000
H2352       H  0.83594864  0.37427022  0.73405973     0.43900
C2353       C  0.15461228  0.35032793  0.73594308    -0.05100
C2354       C  0.13802696  0.34625973  0.73228319    -0.32500
C2355       C  0.12555461  0.35848655  0.73180079     0.36700
C2356       C  0.12937209  0.37529434  0.73533868    -0.05500
C2357       C  0.14607548  0.37934047  0.73858480    -0.32400
C2358       C  0.15856309  0.36714317  0.73884652     0.36600
H2359       H  0.13464222  0.33346071  0.72988615     0.17000
O2360       O  0.10974444  0.35372740  0.72770424    -0.59900
H2361       H  0.14963851  0.39203698  0.74110927     0.17000
O2362       O  0.17475020  0.37192681  0.74119055    -0.60000
H2363       H  0.17544589  0.37557606  0.75295651     0.44000
H2364       H  0.10883358  0.35566495  0.71555744     0.43900
C2365       C  0.75368703  0.62594737  0.11628203    -0.05100
C2366       C  0.75732974  0.62167093  0.13286113    -0.32500
C2367       C  0.75761853  0.63369098  0.14550254     0.36700
C2368       C  0.75450631  0.65052703  0.14177642    -0.05500
C2369       C  0.75071560  0.65481078  0.12530306    -0.32400
C2370       C  0.75011016  0.64278665  0.11271602     0.36600
H2371       H  0.76008613  0.60894781  0.13617091     0.17000
O2372       O  0.76078435  0.62875824  0.16149528    -0.59900
H2373       H  0.74828780  0.66764831  0.12208447     0.17000
O2374       O  0.74585636  0.64779224  0.09702693    -0.60000
H2375       H  0.73366232  0.64624464  0.09634243     0.44000
H2376       H  0.74975186  0.62615553  0.16631234     0.43900
C2377       C  0.75469482  0.38060340  0.11861440    -0.05100
C2378       C  0.74971594  0.36436299  0.11454824    -0.32500
C2379       C  0.74900949  0.35178114  0.12658070     0.36700
C2380       C  0.75300454  0.35523330  0.14333913    -0.05500
C2381       C  0.75767120  0.37157097  0.14747003    -0.32400
C2382       C  0.75863790  0.38410575  0.13536967     0.36600
H2383       H  0.74649709  0.36124372  0.10187088     0.17000
O2384       O  0.74490815  0.33602516  0.12158911    -0.59900
H2385       H  0.76074639  0.37470606  0.16018699     0.17000
O2386       O  0.76437370  0.39945275  0.13999806    -0.60000
H2387       H  0.75504405  0.40473778  0.14608951     0.44000
H2388       H  0.75564453  0.33050457  0.11910580     0.43900
C2389       C  0.75417127  0.37580393  0.87065094    -0.05100
C2390       C  0.75888751  0.38050371  0.85446646    -0.32500
C2391       C  0.75970807  0.36889107  0.84144905     0.36700
C2392       C  0.75608634  0.35198209  0.84437228    -0.05500
C2393       C  0.75133530  0.34728398  0.86053107    -0.32400
C2394       C  0.75016182  0.35894920  0.87346473     0.36600
H2395       H  0.76202613  0.39328008  0.85176402     0.17000
O2396       O  0.76375190  0.37436182  0.82583802    -0.59900
H2397       H  0.74845714  0.33442578  0.86321421     0.17000
O2398       O  0.74480438  0.35364229  0.88872049    -0.60000
H2399       H  0.73266131  0.35569510  0.88877402     0.44000
H2400       H  0.75297421  0.37659064  0.82030581     0.43900
C2401       C  0.25720993  0.85412857  0.64049166    -0.05100
C2402       C  0.25978016  0.87075188  0.64511353    -0.32500
C2403       C  0.26071968  0.88347831  0.63320999     0.36700
C2404       C  0.25891101  0.87988420  0.61604976    -0.05500
C2405       C  0.25627844  0.86315015  0.61152549    -0.32400
C2406       C  0.25545455  0.85042991  0.62346519     0.36600
H2407       H  0.26110922  0.87395141  0.65812216     0.17000
O2408       O  0.26350549  0.89932393  0.63870620    -0.59900
H2409       H  0.25492544  0.85968666  0.59862427     0.17000
O2410       O  0.25385266  0.83427971  0.61825398    -0.60000
H2411       H  0.24215135  0.83320112  0.61450386     0.44000
H2412       H  0.27579901  0.90039038  0.63934472     0.43900
C2413       C  0.20684439  0.77736267  0.66625249    -0.05100
C2414       C  0.20222803  0.79421204  0.66662754    -0.32500
C2415       C  0.21425751  0.80682142  0.66631413     0.36700
C2416       C  0.23127043  0.80274570  0.66552313    -0.05500
C2417       C  0.23589120  0.78590679  0.66503935    -0.32400
C2418       C  0.22385544  0.77329791  0.66522212     0.36600
H2419       H  0.18922241  0.79760792  0.66738263     0.17000
O2420       O  0.20926129  0.82309433  0.66708019    -0.59900
H2421       H  0.24890200  0.78252949  0.66427294     0.17000
O2422       O  0.22883717  0.75704586  0.66402536    -0.60000
H2423       H  0.22874517  0.75451490  0.65195923     0.44000
H2424       H  0.20908310  0.82586695  0.67908999     0.43900
C2425       C  0.12909408  0.75384573  0.61754127    -0.05100
C2426       C  0.14580946  0.75644758  0.61302241    -0.32500
C2427       C  0.15864712  0.75581295  0.62477933     0.36700
C2428       C  0.15507719  0.75278219  0.64166423    -0.05500
C2429       C  0.13847012  0.75011011  0.64626676    -0.32400
C2430       C  0.12558658  0.75064252  0.63449282     0.36600
H2431       H  0.14913211  0.75899953  0.60026656     0.17000
O2432       O  0.17471094  0.75790038  0.61949548    -0.59900
H2433       H  0.13539026  0.74773311  0.65915011     0.17000
O2434       O  0.10972624  0.74747226  0.63976410    -0.60000
H2435       H  0.10599077  0.75784530  0.64528718     0.44000
H2436       H  0.17911369  0.74650190  0.61789206     0.43900
C2437       C  0.18279228  0.69973248  0.71560309    -0.05100
C2438       C  0.16794243  0.70821980  0.71206017    -0.32500
C2439       C  0.16745835  0.72104972  0.70025578     0.36700
C2440       C  0.18194615  0.72555508  0.69142036    -0.05500
C2441       C  0.19680778  0.71704832  0.69496814    -0.32400
C2442       C  0.19729165  0.70423912  0.70682718     0.36600
H2443       H  0.15668179  0.70510513  0.71873800     0.17000
O2444       O  0.15277948  0.72933012  0.69773149    -0.59900
H2445       H  0.20807167  0.72013433  0.68828772     0.17000
O2446       O  0.21196293  0.69599431  0.70950767    -0.60000
H2447       H  0.21210163  0.68685301  0.70123892     0.44000
H2448       H  0.15333142  0.73922140  0.70507010     0.43900
C2449       C  0.15783132  0.64762168  0.73995941    -0.05100
C2450       C  0.16268558  0.63107297  0.74261746    -0.32500
C2451       C  0.15110244  0.61803901  0.74238467     0.36700
C2452       C  0.13405376  0.62127909  0.73940827    -0.05500
C2453       C  0.12928030  0.63791762  0.73667139    -0.32400
C2454       C  0.14086770  0.65093817  0.73709134     0.36600
H2455       H  0.17563444  0.62814610  0.74483559     0.17000
O2456       O  0.15668910  0.60231091  0.74566797    -0.59900
H2457       H  0.11643657  0.64104401  0.73429560     0.17000
O2458       O  0.13533447  0.66692579  0.73506539    -0.60000
H2459       H  0.13316799  0.67107640  0.74646170     0.44000
H2460       H  0.16174136  0.59838446  0.73512812     0.43900
C2461       C  0.23235480  0.67309406  0.79248119    -0.05100
C2462       C  0.23692329  0.67565622  0.77581877    -0.32500
C2463       C  0.22500877  0.67582747  0.76309876     0.36700
C2464       C  0.20801336  0.67360960  0.76682356    -0.05500
C2465       C  0.20343450  0.67095484  0.78348984    -0.32400
C2466       C  0.21537406  0.67075215  0.79622258     0.36600
H2467       H  0.24988310  0.67727825  0.77258110     0.17000
O2468       O  0.23021039  0.67785600  0.74700448    -0.59900
H2469       H  0.19047490  0.66931377  0.78671784     0.17000
O2470       O  0.21022690  0.66859015  0.81231915    -0.60000
H2471       H  0.20873219  0.67997113  0.81680813     0.44000
H2472       H  0.23108858  0.66645744  0.74241082     0.43900
C2473       C  0.25891158  0.64730214  0.84302582    -0.05100
C2474       C  0.26052872  0.63068096  0.83811915    -0.32500
C2475       C  0.26187647  0.61790859  0.84990145     0.36700
C2476       C  0.26110727  0.62152732  0.86714020    -0.05500
C2477       C  0.25931502  0.63830613  0.87189847    -0.32400
C2478       C  0.25840884  0.65106413  0.86007927     0.36600
H2479       H  0.26114658  0.62760397  0.82502437     0.17000
O2480       O  0.26405520  0.60202232  0.84422405    -0.59900
H2481       H  0.25853034  0.64175538  0.88484974     0.17000
O2482       O  0.25638198  0.66716160  0.86532014    -0.60000
H2483       H  0.26752252  0.67075754  0.86915173     0.44000
H2484       H  0.27623491  0.60064387  0.84305433     0.43900
C2485       C  0.30839576  0.72365813  0.81859755    -0.05100
C2486       C  0.29156609  0.72812021  0.81708738    -0.32500
C2487       C  0.27901347  0.71604413  0.81710269     0.36700
C2488       C  0.28311242  0.69905445  0.81841188    -0.05500
C2489       C  0.29993671  0.69458698  0.81998131    -0.32400
C2490       C  0.31249148  0.70667003  0.82000978     0.36600
H2491       H  0.28810168  0.74109206  0.81613691     0.17000
O2492       O  0.26275012  0.72104164  0.81614205    -0.59900
H2493       H  0.30340364  0.68161285  0.82089131     0.17000
O2494       O  0.32874952  0.70167818  0.82106144    -0.60000
H2495       H  0.33258800  0.70065873  0.80938836     0.44000
H2496       H  0.25881903  0.72154015  0.82781130     0.43900
C2497       C  0.30657415  0.82641117  0.71685411    -0.05100
C2498       C  0.31119824  0.82840409  0.70013321    -0.32500
C2499       C  0.29924131  0.82886354  0.68748486     0.36700
C2500       C  0.28221334  0.82748148  0.69137589    -0.05500
C2501       C  0.27757062  0.82551301  0.70810963    -0.32400
C2502       C  0.28954245  0.82507355  0.72077420     0.36600
H2503       H  0.32420768  0.82931303  0.69680710     0.17000
O2504       O  0.30439278  0.83031624  0.67131260    -0.59900
H2505       H  0.26455795  0.82456444  0.71141141     0.17000
O2506       O  0.28441599  0.82362851  0.73695999    -0.60000
H2507       H  0.28377062  0.83517591  0.74120639     0.44000
H2508       H  0.30566100  0.81874507  0.66725992     0.43900
C2509       C  0.33230548  0.79935211  0.76721083    -0.05100
C2510       C  0.34711430  0.79088552  0.77097965    -0.32500
C2511       C  0.34755539  0.77860065  0.78329630     0.36700
C2512       C  0.33303885  0.77454699  0.79224243    -0.05500
C2513       C  0.31819527  0.78290199  0.78840795    -0.32400
C2514       C  0.31777124  0.79526779  0.77614747     0.36600
H2515       H  0.35840071  0.79367974  0.76420504     0.17000
O2516       O  0.36223562  0.77049605  0.78634636    -0.59900
H2517       H  0.30693696  0.78009677  0.79522527     0.17000
O2518       O  0.30315287  0.80355770  0.77331966    -0.60000
H2519       H  0.30387089  0.81382050  0.78011846     0.44000
H2520       H  0.36198866  0.76050431  0.77912472     0.43900
C2521       C  0.38441752  0.75176685  0.86851115    -0.05100
C2522       C  0.38853803  0.75387589  0.85165401    -0.32500
C2523       C  0.37636341  0.75322259  0.83916964     0.36700
C2524       C  0.35956832  0.75037411  0.84331951    -0.05500
C2525       C  0.35541509  0.74819212  0.86011374    -0.32400
C2526       C  0.36755528  0.74892155  0.87261802     0.36600
H2527       H  0.40129985  0.75603462  0.84802043     0.17000
O2528       O  0.38115616  0.75450806  0.82285758    -0.59900
H2529       H  0.34261171  0.74600595  0.86363156     0.17000
O2530       O  0.36278877  0.74603358  0.88870067    -0.60000
H2531       H  0.35718041  0.75638999  0.89235638     0.44000
H2532       H  0.38435085  0.76629835  0.82129570     0.43900
C2533       C  0.63008622  0.75180523  0.11323178    -0.05100
C2534       C  0.64660956  0.74789983  0.10889101    -0.32500
C2535       C  0.65953977  0.74845379  0.12064208     0.36700
C2536       C  0.65622743  0.75299286  0.13725586    -0.05500
C2537       C  0.63979571  0.75704828  0.14158763    -0.32400
C2538       C  0.62690905  0.75665661  0.12984587     0.36600
H2539       H  0.64966728  0.74426791  0.09631825     0.17000
O2540       O  0.67550085  0.74530006  0.11553741    -0.59900
H2541       H  0.63684774  0.76054773  0.15425036     0.17000
O2542       O  0.61131509  0.76125589  0.13488462    -0.60000
H2543       H  0.61077596  0.77343618  0.13305314     0.44000
H2544       H  0.67592266  0.73317783  0.11329919     0.43900
C2545       C  0.35809493  0.75107525  0.14109364    -0.05100
C2546       C  0.35366757  0.74744970  0.12458140    -0.32500
C2547       C  0.36550910  0.74729417  0.11176075     0.36700
C2548       C  0.38232719  0.75095597  0.11514439    -0.05500
C2549       C  0.38684381  0.75423626  0.13173200    -0.32400
C2550       C  0.37498720  0.75430194  0.14459441     0.36600
H2551       H  0.34084652  0.74483826  0.12147043     0.17000
O2552       O  0.36054563  0.74276989  0.09611073    -0.59900
H2553       H  0.39964573  0.75689823  0.13484244     0.17000
O2554       O  0.38020370  0.75671741  0.16064578    -0.60000
H2555       H  0.38370872  0.76850993  0.16124816     0.44000
H2556       H  0.35405144  0.75233557  0.09185390     0.43900
C2557       C  0.63017223  0.12191881  0.73668695    -0.05100
C2558       C  0.62506477  0.13815081  0.74095937    -0.32500
C2559       C  0.63644454  0.15138331  0.74202234     0.36700
C2560       C  0.65353353  0.14867580  0.73906703    -0.05500
C2561       C  0.65870696  0.13241817  0.73523714    -0.32400
C2562       C  0.64733807  0.11925534  0.73388510     0.36600
H2563       H  0.61210445  0.14077931  0.74335523     0.17000
O2564       O  0.63056005  0.16699198  0.74551516    -0.59900
H2565       H  0.67174570  0.12984462  0.73310576     0.17000
O2566       O  0.65331235  0.10393003  0.72950870    -0.60000
H2567       H  0.65326156  0.10382565  0.71721375     0.44000
H2568       H  0.62839683  0.17214557  0.73455933     0.43900
C2569       C  0.36157474  0.14804201  0.74055305    -0.05100
C2570       C  0.35686164  0.13174557  0.73637287    -0.32500
C2571       C  0.36845337  0.11868874  0.73611566     0.36700
C2572       C  0.38529375  0.12168014  0.74012589    -0.05500
C2573       C  0.38993595  0.13795232  0.74451363    -0.32400
C2574       C  0.37835777  0.15100749  0.74466393     0.36600
H2575       H  0.34406378  0.12906533  0.73320201     0.17000
O2576       O  0.36325228  0.10328523  0.73105815    -0.59900
H2577       H  0.40268669  0.14069035  0.74776720     0.17000
O2578       O  0.38376181  0.16671171  0.74842037    -0.60000
H2579       H  0.38647932  0.17186107  0.73757220     0.44000
H2580       H  0.35694759  0.09870328  0.74058788     0.43900
C2581       C  0.38340853  0.87498151  0.74040532    -0.05100
C2582       C  0.38760497  0.85796799  0.73986692    -0.32500
C2583       C  0.37537721  0.84556968  0.74071237     0.36700
C2584       C  0.35849009  0.84995343  0.74176108    -0.05500
C2585       C  0.35418909  0.86680166  0.74234519    -0.32400
C2586       C  0.36636467  0.87921653  0.74193394     0.36600
H2587       H  0.40040556  0.85409095  0.73861785     0.17000
O2588       O  0.38000798  0.82919707  0.73967940    -0.59900
H2589       H  0.34124418  0.87038205  0.74334329     0.17000
O2590       O  0.36124507  0.89539228  0.74311957    -0.60000
H2591       H  0.36115886  0.89788396  0.75518918     0.44000
H2592       H  0.38415872  0.82628958  0.75090359     0.43900
C2593       C  0.75883700  0.85213199  0.64577757    -0.05100
C2594       C  0.76204924  0.84742676  0.62928286    -0.32500
C2595       C  0.76234985  0.85908292  0.61634933     0.36700
C2596       C  0.75932507  0.87609344  0.61957580    -0.05500
C2597       C  0.75608817  0.88083821  0.63615056    -0.32400
C2598       C  0.75590549  0.86911555  0.64913439     0.36600
H2599       H  0.76429184  0.83449605  0.62628780     0.17000
O2600       O  0.76637350  0.85364848  0.60072527    -0.59900
H2601       H  0.75369329  0.89372447  0.63915994     0.17000
O2602       O  0.75315709  0.87450870  0.66506957    -0.60000
H2603       H  0.76436293  0.87618065  0.66988795     0.44000
H2604       H  0.75630285  0.84788210  0.59659290     0.43900
C2605       C  0.70700060  0.82426872  0.72081979    -0.05100
C2606       C  0.70280958  0.82734245  0.70413643    -0.32500
C2607       C  0.71499967  0.82755488  0.69164144     0.36700
C2608       C  0.73187351  0.82486089  0.69564670    -0.05500
C2609       C  0.73604455  0.82173504  0.71231645    -0.32400
C2610       C  0.72386773  0.82152000  0.72480385     0.36600
H2611       H  0.68994854  0.82929640  0.70069238     0.17000
O2612       O  0.71019032  0.83008757  0.67550200    -0.59900
H2613       H  0.74890516  0.81978086  0.71576475     0.17000
O2614       O  0.72869071  0.81894642  0.74093494    -0.60000
H2615       H  0.73068693  0.83020880  0.74555567     0.44000
H2616       H  0.70859476  0.81880185  0.67079161     0.43900
C2617       C  0.65599851  0.85003346  0.74685422    -0.05100
C2618       C  0.66017226  0.86636182  0.74222668    -0.32500
C2619       C  0.64816222  0.87898258  0.74142125     0.36700
C2620       C  0.63152508  0.87579631  0.74607920    -0.05500
C2621       C  0.62738004  0.85949732  0.75085528    -0.32400
C2622       C  0.63923679  0.84670599  0.75094020     0.36600
H2623       H  0.67286414  0.86944756  0.73903724     0.17000
O2624       O  0.65293349  0.89425111  0.73566128    -0.59900
H2625       H  0.61478689  0.85644316  0.75438961     0.17000
O2626       O  0.63405565  0.83090586  0.75458329    -0.60000
H2627       H  0.63215401  0.82552083  0.74366734     0.44000
H2628       H  0.65089009  0.89389081  0.72352496     0.43900
C2629       C  0.67924785  0.76921034  0.79237303    -0.05100
C2630       C  0.67737372  0.78556139  0.79829088    -0.32500
C2631       C  0.67788368  0.79921853  0.78744807     0.36700
C2632       C  0.68016825  0.79676524  0.77021578    -0.05500
C2633       C  0.68182213  0.78039399  0.76429753    -0.32400
C2634       C  0.68130758  0.76675751  0.77512767     0.36600
H2635       H  0.67587820  0.78781736  0.81147610     0.17000
O2636       O  0.67650966  0.81491405  0.79393680    -0.59900
H2637       H  0.68328612  0.77810908  0.75111301     0.17000
O2638       O  0.68256923  0.75105453  0.76863144    -0.60000
H2639       H  0.67093778  0.74731340  0.76697378     0.44000
H2640       H  0.68811346  0.81859267  0.79595953     0.43900
C2641       C  0.65408527  0.74029200  0.84198848    -0.05100
C2642       C  0.65890787  0.73620698  0.85826232    -0.32500
C2643       C  0.64731728  0.73548667  0.87128500     0.36700
C2644       C  0.63038049  0.73929181  0.86841108    -0.05500
C2645       C  0.62560043  0.74332892  0.85205612    -0.32400
C2646       C  0.63713881  0.74363231  0.83897307     0.36600
H2647       H  0.67182217  0.73358232  0.86098509     0.17000
O2648       O  0.65283482  0.73084037  0.88668610    -0.59900
H2649       H  0.61279940  0.74625648  0.84922431     0.17000
O2650       O  0.63157659  0.74692498  0.82321363    -0.60000
H2651       H  0.62945597  0.73589498  0.81816218     0.44000
H2652       H  0.65148549  0.71861035  0.88703009     0.43900
C2653       C  0.70509045  0.71637084  0.81432108    -0.05100
C2654       C  0.72168709  0.72135730  0.81205753    -0.32500
C2655       C  0.73474932  0.70978344  0.81227304     0.36700
C2656       C  0.73146409  0.69273468  0.81467756    -0.05500
C2657       C  0.71486742  0.68769761  0.81673925    -0.32400
C2658       C  0.70178846  0.69925745  0.81644449     0.36600
H2659       H  0.72464081  0.73439335  0.81057520     0.17000
O2660       O  0.75074079  0.71538704  0.81059208    -0.59900
H2661       H  0.71198581  0.67466243  0.81839421     0.17000
O2662       O  0.68580729  0.69360125  0.81806550    -0.60000
H2663       H  0.68147954  0.69279608  0.80656021     0.44000
H2664       H  0.75476304  0.71716946  0.82210056     0.43900
C2665       C  0.75817636  0.64351247  0.84221742    -0.05100
C2666       C  0.75576499  0.62672569  0.83832323    -0.32500
C2667       C  0.75518119  0.61455273  0.85083191     0.36700
C2668       C  0.75740437  0.61898529  0.86775845    -0.05500
C2669       C  0.75976350  0.63594833  0.87149903    -0.32400
C2670       C  0.76005750  0.64807786  0.85897754     0.36600
H2671       H  0.75396326  0.62305604  0.82549472     0.17000
O2672       O  0.75169354  0.59853196  0.84628137    -0.59900
H2673       H  0.76151799  0.63998752  0.88418573     0.17000
O2674       O  0.76224269  0.66441689  0.86327708    -0.60000
H2675       H  0.77433858  0.66641948  0.86223973     0.44000
H2676       H  0.76207131  0.59422409  0.84124596     0.43900
C2677       C  0.80888644  0.66880491  0.76559519    -0.05100
C2678       C  0.81324913  0.66805185  0.78249314    -0.32500
C2679       C  0.80103288  0.66787137  0.79497543     0.36700
C2680       C  0.78401516  0.66821437  0.79073752    -0.05500
C2681       C  0.77966839  0.66890110  0.77382883    -0.32400
C2682       C  0.79187766  0.66910532  0.76135734     0.36600
H2683       H  0.82622467  0.66794295  0.78605825     0.17000
O2684       O  0.80589826  0.66774571  0.81129816    -0.59900
H2685       H  0.76669869  0.66905092  0.77024668     0.17000
O2686       O  0.78701141  0.66933889  0.74503456    -0.60000
H2687       H  0.78738906  0.65757147  0.74137237     0.44000
H2688       H  0.80664522  0.67961711  0.81454214     0.43900
C2689       C  0.86132224  0.64505935  0.74077709    -0.05100
C2690       C  0.85736716  0.62832627  0.74372145    -0.32500
C2691       C  0.86970149  0.61597346  0.74425034     0.36700
C2692       C  0.88663055  0.62009479  0.74174604    -0.05500
C2693       C  0.89055210  0.63690795  0.73889648    -0.32400
C2694       C  0.87817500  0.64926012  0.73840883     0.36600
H2695       H  0.84454575  0.62471587  0.74561261     0.17000
O2696       O  0.86496876  0.60006238  0.74795459    -0.59900
H2697       H  0.90331424  0.64065376  0.73702384     0.17000
O2698       O  0.88281676  0.66554047  0.73651370    -0.60000
H2699       H  0.88643151  0.66656992  0.72477909     0.44000
H2700       H  0.85991753  0.59568029  0.73761745     0.43900
C2701       C  0.80797530  0.77456921  0.66846674    -0.05100
C2702       C  0.81258642  0.79136731  0.66951364    -0.32500
C2703       C  0.80055710  0.80399035  0.67043340     0.36700
C2704       C  0.78348325  0.80004264  0.67005757    -0.05500
C2705       C  0.77885194  0.78323193  0.66897953    -0.32400
C2706       C  0.79090499  0.77058898  0.66809997     0.36600
H2707       H  0.82561401  0.79470348  0.66992459     0.17000
O2708       O  0.80564793  0.82016458  0.67199094    -0.59900
H2709       H  0.76582290  0.77990943  0.66851711     0.17000
O2710       O  0.78585622  0.75439385  0.66659403    -0.60000
H2711       H  0.78608666  0.75203961  0.65449860     0.44000
H2712       H  0.80548721  0.82245542  0.68411085     0.43900
C2713       C  0.83381435  0.72228258  0.69167887    -0.05100
C2714       C  0.84854466  0.71829100  0.70019223    -0.32500
C2715       C  0.84897887  0.70542394  0.71197176     0.36700
C2716       C  0.83456198  0.69603866  0.71539279    -0.05500
C2717       C  0.81985294  0.69998959  0.70682031    -0.32400
C2718       C  0.81942322  0.71285586  0.69504114     0.36600
H2719       H  0.85973697  0.72539725  0.69792010     0.17000
O2720       O  0.86350652  0.70239057  0.72033485    -0.59900
H2721       H  0.80865430  0.69289961  0.70910290     0.17000
O2722       O  0.80490081  0.71589624  0.68667485    -0.60000
H2723       H  0.80605421  0.70993545  0.67593239     0.44000
H2724       H  0.86289265  0.70935944  0.73049600     0.43900
C2725       C  0.85931026  0.75036743  0.64186876    -0.05100
C2726       C  0.85456430  0.75289730  0.62527989    -0.32500
C2727       C  0.86632710  0.75313635  0.61240036     0.36700
C2728       C  0.88340464  0.75057850  0.61581831    -0.05500
C2729       C  0.88811658  0.74817264  0.63250783    -0.32400
C2730       C  0.87633906  0.74817530  0.64539841     0.36600
H2731       H  0.84157044  0.75460990  0.62221971     0.17000
O2732       O  0.86082321  0.75606852  0.59657633    -0.59900
H2733       H  0.90102129  0.74622549  0.63570934     0.17000
O2734       O  0.88169593  0.74624154  0.66145124    -0.60000
H2735       H  0.88308745  0.75768539  0.66579582     0.44000
H2736       H  0.86161085  0.76826749  0.59510273     0.43900
loop_ 
_geom_bond_atom_site_label_1 
_geom_bond_atom_site_label_2 
_geom_bond_distance 
_geom_bond_site_symmetry_2 
_ccdc_geom_bond_type 
C1            C2   1.409       .  A
C1            C6   1.410       .  A
C1         C2725   1.497       .  S
C2            C3   1.409       .  A
C2            H7   1.083       .  S
C3            C4   1.411       .  A
C3         C2713   1.498       .  S
C4            C5   1.409       .  A
C4            H8   1.083       .  S
C5            C6   1.408       .  A
C5         C2701   1.495       .  S
C6            H9   1.084       .  S
C10          C11   1.411       .  A
C10          C15   1.410       .  A
C10        C2689   1.501       .  S
C11          C12   1.410       .  A
C11          H16   1.082       .  S
C12          C13   1.409       .  A
C12        C2716   1.499       .  S
C13          C14   1.408       .  A
C13          H17   1.083       .  S
C14          C15   1.408       .  A
C14        C2677   1.496       .  S
C15          H18   1.083       .  S
C19          C20   1.408       .  A
C19          C24   1.406       .  A
C19        C2665   1.489       .  S
C20          C21   1.410       .  A
C20          H25   1.084       .  S
C21          C22   1.410       .  A
C21        C2680   1.497       .  S
C22          C23   1.410       .  A
C22          H26   1.083       .  S
C23          C24   1.408       .  A
C23        C2656   1.497       .  S
C24          H27   1.084       .  S
C28          C29   1.409       .  A
C28          C33   1.409       .  A
C28        C2641   1.499       .  S
C29          C30   1.408       .  A
C29          H34   1.083       .  S
C30          C31   1.410       .  A
C30        C2629   1.498       .  S
C31          C32   1.410       .  A
C31          H35   1.083       .  S
C32          C33   1.409       .  A
C32        C2653   1.500       .  S
C33          H36   1.082       .  S
C37          C38   1.412       .  A
C37          C42   1.412       .  A
C37        C2617   1.505       .  S
C38          C39   1.409       .  A
C38          H43   1.081       .  S
C39          C40   1.408       .  A
C39        C2632   1.498       .  S
C40          C41   1.407       .  A
C40          H44   1.083       .  S
C41          C42   1.408       .  A
C41        C2605   1.498       .  S
C42          H45   1.082       .  S
C46          C47   1.410       .  A
C46          C51   1.410       .  A
C46        C2593   1.501       .  S
C47          C48   1.407       .  A
C47          H52   1.083       .  S
C48          C49   1.407       .  A
C48        C2704   1.496       .  S
C49          C50   1.411       .  A
C49          H53   1.084       .  S
C50          C51   1.412       .  A
C50        C2608   1.498       .  S
C51          H54   1.082       .  S
N55          N56   1.319       .  A
N55          C59   1.353       .  A
N55         Cu63   2.089       .  S
N56          C57   1.338       .  A
N56         Cu62   2.048       .  S
C57          C58   1.378       .  A
C57          H60   1.082       .  S
C58          C59   1.390       .  A
C58         C106   1.472   1_565  S
C59          H61   1.082       .  S
Cu62         N65   2.048       .  S
Cu63         N73   2.092       .  S
Cu64         N66   2.096       .  S
Cu64         N72   2.100       .  S
N65          N66   1.320       .  A
N65          C69   1.337       .  A
N66          C67   1.354       .  A
C67          C68   1.391       .  A
C67          H70   1.082       .  S
C68          C69   1.377       .  A
C68          C92   1.472       .  S
C69          H71   1.082       .  S
N72          N73   1.325       .  A
N72          C76   1.348       .  A
N73          C74   1.344       .  A
C74          C75   1.392       .  A
C74          H77   1.078       .  S
C75          C76   1.394       .  A
C75        C2581   1.503       .  S
C76          H78   1.081       .  S
N79          N80   1.320       .  A
N79          C83   1.357       .  A
N79         Cu87   2.102       .  S
N80          C81   1.338       .  A
N80         Cu86   2.061       .  S
C81          C82   1.383       .  A
C81          H84   1.081       .  S
C82          C83   1.395       .  A
C82         C130   1.486   1_565  S
C83          H85   1.082       .  S
Cu86         N89   2.060       .  S
Cu87         N97   2.106       .  S
Cu88         N90   2.083       .  S
Cu88         N96   2.087       .  S
N89          N90   1.320       .  A
N89          C93   1.338       .  A
N90          C91   1.353       .  A
C91          C92   1.389       .  A
C91          H94   1.082       .  S
C92          C93   1.380       .  A
C93          H95   1.082       .  S
N96          N97   1.325       .  A
N96         C100   1.346       .  A
N97          C98   1.347       .  A
C98          C99   1.393       .  A
C98         H101   1.079       .  S
C99         C100   1.390       .  A
C99        C2620   1.501       .  S
C100        H102   1.081       .  S
N103        N104   1.320       .  A
N103        C107   1.353       .  A
N103       Cu111   2.087       .  S
N104        C105   1.338       .  A
N104       Cu110   2.057       .  S
C105        C106   1.379       .  A
C105        H108   1.082       .  S
C106        C107   1.389       .  A
C107        H109   1.082       .  S
Cu110       N113   2.058       .  S
Cu111       N121   2.091       .  S
Cu112       N114   2.104       .  S
Cu112       N120   2.108       .  S
N113        N114   1.320       .  A
N113        C117   1.338       .  A
N114        C115   1.357       .  A
C115        C116   1.394       .  A
C115        H118   1.082       .  S
C116        C117   1.382       .  A
C116        C140   1.484       .  S
C117        H119   1.081       .  S
N120        N121   1.326       .  A
N120        C124   1.348       .  A
N121        C122   1.347       .  A
C122        C123   1.389       .  A
C122        H125   1.080       .  S
C123        C124   1.391       .  A
C123       C2572   1.499       .  S
C124        H126   1.081       .  S
N127        N128   1.319       .  A
N127        C131   1.358       .  A
N127       Cu135   2.113       .  S
N128        C129   1.338       .  A
N128       Cu134   2.052       .  S
C129        C130   1.381       .  A
C129        H132   1.081       .  S
C130        C131   1.397       .  A
C131        H133   1.082       .  S
Cu134       N137   2.052       .  S
Cu135       N145   2.118       .  S
Cu136       N138   2.105       .  S
Cu136       N144   2.110       .  S
N137        N138   1.319       .  A
N137        C141   1.337       .  A
N138        C139   1.357       .  A
C139        C140   1.395       .  A
C139        H142   1.082       .  S
C140        C141   1.381       .  A
C141        H143   1.081       .  S
N144        N145   1.327       .  A
N144        C148   1.349       .  A
N145        C146   1.350       .  A
C146        C147   1.396       .  A
C146        H149   1.079       .  S
C147        C148   1.393       .  A
C147       C2557   1.510       .  S
C148        H150   1.081       .  S
N151        N152   1.320       .  A
N151        C155   1.354       .  A
N151       Cu159   2.098       .  S
N152        C153   1.340       .  A
N152       Cu158   2.057       .  S
C153        C154   1.380       .  A
C153        H156   1.082       .  S
C154        C155   1.391       .  A
C154        C188   1.476       .  S
C155        H157   1.082       .  S
Cu158       N161   2.055       .  S
Cu159       N169   2.100       .  S
Cu160       N162   2.104       .  S
Cu160       N168   2.108       .  S
N161        N162   1.321       .  A
N161        C165   1.339       .  A
N162        C163   1.355       .  A
C163        C164   1.393       .  A
C163        H166   1.082       .  S
C164        C165   1.379       .  A
C164        C226   1.477   1_554  S
C165        H167   1.082       .  S
N168        N169   1.326       .  A
N168        C172   1.349       .  A
N169        C170   1.348       .  A
C170        C171   1.389       .  A
C170        H173   1.081       .  S
C171        C172   1.393       .  A
C171       C2548   1.501       .  S
C172        H174   1.080       .  S
N175        N176   1.321       .  A
N175        C179   1.356       .  A
N175       Cu183   2.102       .  S
N176        C177   1.338       .  A
N176       Cu182   2.061       .  S
C177        C178   1.382       .  A
C177        H180   1.081       .  S
C178        C179   1.393       .  A
C178        C202   1.483   1_554  S
C179        H181   1.082       .  S
Cu182       N185   2.061       .  S
Cu183       N193   2.105       .  S
Cu184       N186   2.100       .  S
Cu184       N192   2.104       .  S
N185        N186   1.320       .  A
N185        C189   1.341       .  A
N186        C187   1.354       .  A
C187        C188   1.391       .  A
C187        H190   1.082       .  S
C188        C189   1.381       .  A
C189        H191   1.082       .  S
N192        N193   1.325       .  A
N192        C196   1.348       .  A
N193        C194   1.349       .  A
C194        C195   1.393       .  A
C194        H197   1.081       .  S
C195        C196   1.393       .  A
C195       C2533   1.506       .  S
C196        H198   1.079       .  S
N199        N200   1.319       .  A
N199        C203   1.357       .  A
N199       Cu207   2.104       .  S
N200        C201   1.337       .  A
N200       Cu206   2.054       .  S
C201        C202   1.381       .  A
C201        H204   1.081       .  S
C202        C203   1.395       .  A
C203        H205   1.082       .  S
Cu206       N209   2.055       .  S
Cu207       N217   2.109       .  S
Cu208       N210   2.099       .  S
Cu208       N216   2.104       .  S
N209        N210   1.319       .  A
N209        C213   1.337       .  A
N210        C211   1.357       .  A
C211        C212   1.395       .  A
C211        H214   1.082       .  S
C212        C213   1.381       .  A
C212        C236   1.483       .  S
C213        H215   1.081       .  S
N216        N217   1.327       .  A
N216        C220   1.347       .  A
N217        C218   1.349       .  A
C218        C219   1.394       .  A
C218        H221   1.079       .  S
C219        C220   1.391       .  A
C219       C2644   1.505       .  S
C220        H222   1.081       .  S
N223        N224   1.319       .  A
N223        C227   1.354       .  A
N223       Cu231   2.091       .  S
N224        C225   1.340       .  A
N224       Cu230   2.060       .  S
C225        C226   1.382       .  A
C225        H228   1.082       .  S
C226        C227   1.390       .  A
C227        H229   1.082       .  S
Cu230       N233   2.058       .  S
Cu231       N241   2.094       .  S
Cu232       N234   2.105       .  S
Cu232       N240   2.109       .  S
N233        N234   1.321       .  A
N233        C237   1.337       .  A
N234        C235   1.357       .  A
C235        C236   1.395       .  A
C235        H238   1.082       .  S
C236        C237   1.380       .  A
C237        H239   1.081       .  S
N240        N241   1.326       .  A
N240        C244   1.349       .  A
N241        C242   1.346       .  A
C242        C243   1.389       .  A
C242        H245   1.080       .  S
C243        C244   1.392       .  A
C243       C2521   1.499       .  S
C244        H246   1.081       .  S
C247        C248   1.404       .  A
C247        C252   1.405       .  A
C247       C2584   1.486       .  S
C248        C249   1.406       .  A
C248        H253   1.084       .  S
C249        C250   1.408       .  A
C249       C2497   1.492       .  S
C250        C251   1.409       .  A
C250        H254   1.083       .  S
C251        C252   1.408       .  A
C251       C2509   1.493       .  S
C252        H255   1.083       .  S
C256        C257   1.410       .  A
C256        C261   1.406       .  A
C256       C2524   1.496       .  S
C257        C258   1.410       .  A
C257        H262   1.083       .  S
C258        C259   1.407       .  A
C258       C2485   1.494       .  S
C259        C260   1.406       .  A
C259        H263   1.084       .  S
C260        C261   1.405       .  A
C260       C2512   1.491       .  S
C261        H264   1.083       .  S
C265        C266   1.404       .  A
C265        C270   1.407       .  A
C265       C2473   1.487       .  S
C266        C267   1.405       .  A
C266        H271   1.084       .  S
C267        C268   1.409       .  A
C267       C2488   1.493       .  S
C268        C269   1.410       .  A
C268        H272   1.083       .  S
C269        C270   1.410       .  A
C269       C2461   1.497       .  S
C270        H273   1.083       .  S
C274        C275   1.410       .  A
C274        C279   1.409       .  A
C274       C2449   1.498       .  S
C275        C276   1.409       .  A
C275        H280   1.083       .  S
C276        C277   1.409       .  A
C276       C2437   1.497       .  S
C277        C278   1.410       .  A
C277        H281   1.083       .  S
C278        C279   1.408       .  A
C278       C2464   1.498       .  S
C279        H282   1.083       .  S
C283        C284   1.407       .  A
C283        C288   1.410       .  A
C283       C2428   1.496       .  S
C284        C285   1.405       .  A
C284        H289   1.083       .  S
C285        C286   1.409       .  A
C285       C2413   1.492       .  S
C286        C287   1.411       .  A
C286        H290   1.083       .  S
C287        C288   1.411       .  A
C287       C2440   1.500       .  S
C288        H291   1.083       .  S
C292        C293   1.411       .  A
C292        C297   1.410       .  A
C292       C2401   1.499       .  S
C293        C294   1.409       .  A
C293        H298   1.083       .  S
C294        C295   1.405       .  A
C294       C2416   1.490       .  S
C295        C296   1.406       .  A
C295        H299   1.084       .  S
C296        C297   1.409       .  A
C296       C2500   1.492       .  S
C297        H300   1.083       .  S
N301        N302   1.319       .  A
N301        C305   1.355       .  A
N301       Cu309   2.093       .  S
N302        C303   1.338       .  A
N302       Cu308   2.054       .  S
C303        C304   1.380       .  A
C303        H306   1.082       .  S
C304        C305   1.393       .  A
C304        C328   1.479       .  S
C305        H307   1.082       .  S
Cu308       N311   2.054       .  S
Cu309       N319   2.098       .  S
Cu310       N312   2.106       .  S
Cu310       N318   2.111       .  S
N311        N312   1.319       .  A
N311        C315   1.337       .  A
N312        C313   1.358       .  A
C313        C314   1.396       .  A
C313        H316   1.082       .  S
C314        C315   1.381       .  A
C314        C362   1.485   1_556  S
C315        H317   1.081       .  S
N318        N319   1.327       .  A
N318        C322   1.349       .  A
N319        C320   1.347       .  A
C320        C321   1.389       .  A
C320        H323   1.081       .  S
C321        C322   1.393       .  A
C321       C2389   1.501       .  S
C322        H324   1.080       .  S
N325        N326   1.318       .  A
N325        C329   1.354       .  A
N325       Cu333   2.092       .  S
N326        C327   1.338       .  A
N326       Cu332   2.054       .  S
C327        C328   1.382       .  A
C327        H330   1.082       .  S
C328        C329   1.392       .  A
C329        H331   1.082       .  S
Cu332       N335   2.053       .  S
Cu333       N343   2.097       .  S
Cu334       N336   2.107       .  S
Cu334       N342   2.112       .  S
N335        N336   1.320       .  A
N335        C339   1.335       .  A
N336        C337   1.358       .  A
C337        C338   1.396       .  A
C337        H340   1.082       .  S
C338        C339   1.380       .  A
C338        C386   1.483   1_556  S
C339        H341   1.081       .  S
N342        N343   1.326       .  A
N342        C346   1.349       .  A
N343        C344   1.346       .  A
C344        C345   1.392       .  A
C344        H347   1.078       .  S
C345        C346   1.395       .  A
C345       C2668   1.507       .  S
C346        H348   1.081       .  S
N349        N350   1.319       .  A
N349        C353   1.356       .  A
N349       Cu357   2.093       .  S
N350        C351   1.336       .  A
N350       Cu356   2.059       .  S
C351        C352   1.382       .  A
C351        H354   1.081       .  S
C352        C353   1.393       .  A
C352        C376   1.481       .  S
C353        H355   1.082       .  S
Cu356       N359   2.059       .  S
Cu357       N367   2.097       .  S
Cu358       N360   2.105       .  S
Cu358       N366   2.110       .  S
N359        N360   1.319       .  A
N359        C363   1.338       .  A
N360        C361   1.357       .  A
C361        C362   1.395       .  A
C361        H364   1.082       .  S
C362        C363   1.382       .  A
C363        H365   1.081       .  S
N366        N367   1.327       .  A
N366        C370   1.348       .  A
N367        C368   1.347       .  A
C368        C369   1.389       .  A
C368        H371   1.080       .  S
C369        C370   1.391       .  A
C369       C2377   1.499       .  S
C370        H372   1.081       .  S
N373        N374   1.318       .  A
N373        C377   1.357       .  A
N373       Cu381   2.098       .  S
N374        C375   1.335       .  A
N374       Cu380   2.048       .  S
C375        C376   1.380       .  A
C375        H378   1.081       .  S
C376        C377   1.395       .  A
C377        H379   1.082       .  S
Cu380       N383   2.049       .  S
Cu381       N391   2.104       .  S
Cu382       N384   2.097       .  S
Cu382       N390   2.104       .  S
N383        N384   1.318       .  A
N383        C387   1.335       .  A
N384        C385   1.358       .  A
C385        C386   1.396       .  A
C385        H388   1.082       .  S
C386        C387   1.381       .  A
C387        H389   1.081       .  S
N390        N391   1.327       .  A
N390        C394   1.346       .  A
N391        C392   1.347       .  A
C392        C393   1.390       .  A
C392        H395   1.081       .  S
C393        C394   1.391       .  A
C393       C2365   1.500       .  S
C394        H396   1.080       .  S
N397        N398   1.319       .  A
N397        C401   1.354       .  A
N397       Cu405   2.095       .  S
N398        C399   1.340       .  A
N398       Cu404   2.059       .  S
C399        C400   1.383       .  A
C399        H402   1.082       .  S
C400        C401   1.392       .  A
C400        C472   1.481   1_455  S
C401        H403   1.082       .  S
Cu404       N407   2.059       .  S
Cu405       N415   2.099       .  S
Cu406       N408   2.102       .  S
Cu406       N414   2.105       .  S
N407        N408   1.321       .  A
N407        C411   1.337       .  A
N408        C409   1.356       .  A
C409        C410   1.394       .  A
C409        H412   1.082       .  S
C410        C411   1.380       .  A
C410        C434   1.482       .  S
C411        H413   1.081       .  S
N414        N415   1.326       .  A
N414        C418   1.348       .  A
N415        C416   1.348       .  A
C416        C417   1.392       .  A
C416        H419   1.080       .  S
C417        C418   1.393       .  A
C417       C2356   1.504       .  S
C418        H420   1.081       .  S
N421        N422   1.320       .  A
N421        C425   1.356       .  A
N421       Cu429   2.097       .  S
N422        C423   1.338       .  A
N422       Cu428   2.062       .  S
C423        C424   1.383       .  A
C423        H426   1.081       .  S
C424        C425   1.393       .  A
C424        C448   1.483       .  S
C425        H427   1.082       .  S
Cu428       N431   2.062       .  S
Cu429       N439   2.101       .  S
Cu430       N432   2.096       .  S
Cu430       N438   2.100       .  S
N431        N432   1.320       .  A
N431        C435   1.338       .  A
N432        C433   1.355       .  A
C433        C434   1.393       .  A
C433        H436   1.082       .  S
C434        C435   1.382       .  A
C435        H437   1.081       .  S
N438        N439   1.325       .  A
N438        C442   1.347       .  A
N439        C440   1.347       .  A
C440        C441   1.393       .  A
C440        H443   1.081       .  S
C441        C442   1.394       .  A
C441       C2452   1.506       .  S
C442        H444   1.078       .  S
N445        N446   1.320       .  A
N445        C449   1.358       .  A
N445       Cu453   2.111       .  S
N446        C447   1.336       .  A
N446       Cu452   2.050       .  S
C447        C448   1.379   1_655  A
C447        H450   1.081       .  S
C448        C449   1.396   1_455  A
C449        H451   1.082       .  S
Cu452       N455   2.051       .  S
Cu453       N463   2.116       .  S
Cu454       N456   2.093       .  S
Cu454       N462   2.098       .  S
N455        N456   1.318       .  A
N455        C459   1.337       .  A
N456        C457   1.355       .  A
C457        C458   1.393       .  A
C457        H460   1.082       .  S
C458        C459   1.381       .  A
C458        C482   1.480       .  S
C459        H461   1.081       .  S
N462        N463   1.327       .  A
N462        C466   1.346       .  A
N463        C464   1.350       .  A
C464        C465   1.395       .  A
C464        H467   1.081       .  S
C465        C466   1.391       .  A
C465       C2692   1.506       .  S
C466        H468   1.079       .  S
N469        N470   1.319       .  A
N469        C473   1.354       .  A
N469       Cu477   2.098       .  S
N470        C471   1.340       .  A
N470       Cu476   2.056       .  S
C471        C472   1.382       .  A
C471        H474   1.082       .  S
C472        C473   1.393       .  A
C473        H475   1.082       .  S
Cu476       N479   2.055       .  S
Cu477       N487   2.102       .  S
Cu478       N480   2.098       .  S
Cu478       N486   2.103       .  S
N479        N480   1.320       .  A
N479        C483   1.337       .  A
N480        C481   1.356       .  A
C481        C482   1.393       .  A
C481        H484   1.082       .  S
C482        C483   1.380       .  A
C483        H485   1.081       .  S
N486        N487   1.325       .  A
N486        C490   1.348       .  A
N487        C488   1.348       .  A
C488        C489   1.395       .  A
C488        H491   1.078       .  S
C489        C490   1.395       .  A
C489       C2341   1.509       .  S
C490        H492   1.080       .  S
C493        C494   1.410       .  A
C493        C498   1.413       .  A
C493       C2392   1.503       .  S
C494        C495   1.408       .  A
C494        H499   1.082       .  S
C495        C496   1.411       .  A
C495       C2317   1.503       .  S
C496        C497   1.412       .  A
C496        H500   1.083       .  S
C497        C498   1.412       .  A
C497       C2329   1.504       .  S
C498        H501   1.082       .  S
C502        C503   1.413       .  A
C502        C507   1.410       .  A
C502       C2344   1.500       .  S
C503        C504   1.411       .  A
C503        H508   1.083       .  S
C504        C505   1.412       .  A
C504       C2332   1.503       .  S
C505        C506   1.410       .  A
C505        H509   1.083       .  S
C506        C507   1.409       .  A
C506       C2308   1.500       .  S
C507        H510   1.084       .  S
C511        C512   1.411       .  A
C511        C516   1.412       .  A
C511       C2293   1.505       .  S
C512        C513   1.411       .  A
C512        H517   1.083       .  S
C513        C514   1.411       .  A
C513       C2284   1.502       .  S
C514        C515   1.411       .  A
C514        H518   1.082       .  S
C515        C516   1.411       .  A
C515       C2320   1.504       .  S
C516        H519   1.082       .  S
C520        C521   1.414       .  A
C520        C525   1.411       .  A
C520       C2560   1.506       .  S
C521        C522   1.414       .  A
C521        H526   1.082       .  S
C522        C523   1.411       .  A
C522       C2281   1.504       .  S
C523        C524   1.408       .  A
C523        H527   1.083       .  S
C524        C525   1.407       .  A
C524       C2269   1.499       .  S
C525        H528   1.083       .  S
C529        C530   1.410       .  A
C529        C534   1.409       .  A
C529       C2257   1.495       .  S
C530        C531   1.412       .  A
C530        H535   1.084       .  S
C531        C532   1.409       .  A
C531       C2245   1.501       .  S
C532        C533   1.408       .  A
C532        H536   1.083       .  S
C533        C534   1.410       .  A
C533       C2272   1.498       .  S
C534        H537   1.083       .  S
C538        C539   1.409       .  A
C538        C543   1.411       .  A
C538       C2233   1.501       .  S
C539        C540   1.408       .  A
C539        H544   1.083       .  S
C540        C541   1.411       .  A
C540       C2248   1.500       .  S
C541        C542   1.411       .  A
C541        H545   1.083       .  S
C542        C543   1.411       .  A
C542       C2305   1.501       .  S
C543        H546   1.083       .  S
N547        N548   1.320       .  A
N547        C551   1.354       .  A
N547       Cu555   2.095       .  S
N548        C549   1.338       .  A
N548       Cu554   2.056       .  S
C549        C550   1.378       .  A
C549        H552   1.082       .  S
C550        C551   1.391       .  A
C550        C608   1.474       .  S
C551        H553   1.082       .  S
Cu554       N557   2.056       .  S
Cu555       N565   2.099       .  S
Cu556       N558   2.111       .  S
Cu556       N564   2.115       .  S
N557        N558   1.320       .  A
N557        C561   1.338       .  A
N558        C559   1.358       .  A
C559        C560   1.396       .  A
C559        H562   1.082       .  S
C560        C561   1.382       .  A
C560        C584   1.487       .  S
C561        H563   1.081       .  S
N564        N565   1.327       .  A
N564        C568   1.350       .  A
N565        C566   1.347       .  A
C566        C567   1.388       .  A
C566        H569   1.081       .  S
C567        C568   1.393       .  A
C567       C2221   1.500       .  S
C568        H570   1.081       .  S
N571        N572   1.320       .  A
N571        C575   1.355       .  A
N571       Cu579   2.098       .  S
N572        C573   1.340       .  A
N572       Cu578   2.064       .  S
C573        C574   1.381       .  A
C573        H576   1.082       .  S
C574        C575   1.392       .  A
C574        C622   1.478       .  S
C575        H577   1.082       .  S
Cu578       N581   2.063       .  S
Cu579       N589   2.101       .  S
Cu580       N582   2.112       .  S
Cu580       N588   2.115       .  S
N581        N582   1.321       .  A
N581        C585   1.339       .  A
N582        C583   1.357       .  A
C583        C584   1.395       .  A
C583        H586   1.082       .  S
C584        C585   1.382       .  A
C585        H587   1.081       .  S
N588        N589   1.326       .  A
N588        C592   1.351       .  A
N589        C590   1.347       .  A
C590        C591   1.390       .  A
C590        H593   1.081       .  S
C591        C592   1.395       .  A
C591       C2296   1.505       .  S
C592        H594   1.080       .  S
N595        N596   1.321       .  A
N595        C599   1.356       .  A
N595       Cu603   2.098       .  S
N596        C597   1.337       .  A
N596       Cu602   2.060       .  S
C597        C598   1.381       .  A
C597        H600   1.081       .  S
C598        C599   1.393       .  A
C598        C632   1.481       .  S
C599        H601   1.082       .  S
Cu602       N605   2.059       .  S
Cu603       N613   2.102       .  S
Cu604       N606   2.088       .  S
Cu604       N612   2.091       .  S
N605        N606   1.319       .  A
N605        C609   1.340       .  A
N606        C607   1.353       .  A
C607        C608   1.390   1_554  A
C607        H610   1.082       .  S
C608        C609   1.381   1_556  A
C609        H611   1.082       .  S
N612        N613   1.325       .  A
N612        C616   1.345       .  A
N613        C614   1.348       .  A
C614        C615   1.392       .  A
C614        H617   1.081       .  S
C615        C616   1.389       .  A
C615       C2209   1.498       .  S
C616        H618   1.080       .  S
N619        N620   1.319       .  A
N619        C623   1.356       .  A
N619       Cu627   2.106       .  S
N620        C621   1.339       .  A
N620       Cu626   2.052       .  S
C621        C622   1.379   1_554  A
C621        H624   1.082       .  S
C622        C623   1.394   1_556  A
C623        H625   1.082       .  S
Cu626       N629   2.052       .  S
Cu627       N637   2.111       .  S
Cu628       N630   2.100       .  S
Cu628       N636   2.104       .  S
N629        N630   1.319       .  A
N629        C633   1.336       .  A
N630        C631   1.357       .  A
C631        C632   1.394       .  A
C631        H634   1.082       .  S
C632        C633   1.380       .  A
C633        H635   1.081       .  S
N636        N637   1.327       .  A
N636        C640   1.348       .  A
N637        C638   1.349       .  A
C638        C639   1.393       .  A
C638        H641   1.081       .  S
C639        C640   1.392       .  A
C639       C2200   1.505       .  S
C640        H642   1.079       .  S
N643        N644   1.319       .  A
N643        C647   1.357       .  A
N643       Cu651   2.103       .  S
N644        C645   1.336       .  A
N644       Cu650   2.048       .  S
C645        C646   1.379       .  A
C645        H648   1.082       .  S
C646        C647   1.394       .  A
C646        C670   1.479       .  S
C647        H649   1.082       .  S
Cu650       N653   2.048       .  S
Cu651       N661   2.109       .  S
Cu652       N654   2.109       .  S
Cu652       N660   2.113       .  S
N653        N654   1.319       .  A
N653        C657   1.337       .  A
N654        C655   1.358       .  A
C655        C656   1.396   1_554  A
C655        H658   1.082       .  S
C656        C657   1.379   1_556  A
C656        C728   1.482       .  S
C657        H659   1.082       .  S
N660        N661   1.328       .  A
N660        C664   1.348       .  A
N661        C662   1.349       .  A
C662        C663   1.391       .  A
C662        H665   1.081       .  S
C663        C664   1.392       .  A
C663       C2185   1.504       .  S
C664        H666   1.080       .  S
N667        N668   1.319       .  A
N667        C671   1.355       .  A
N667       Cu675   2.095       .  S
N668        C669   1.338       .  A
N668       Cu674   2.056       .  S
C669        C670   1.381       .  A
C669        H672   1.082       .  S
C670        C671   1.393       .  A
C671        H673   1.082       .  S
Cu674       N677   2.055       .  S
Cu675       N685   2.100       .  S
Cu676       N678   2.102       .  S
Cu676       N684   2.107       .  S
N677        N678   1.320       .  A
N677        C681   1.337       .  A
N678        C679   1.357       .  A
C679        C680   1.395       .  A
C679        H682   1.082       .  S
C680        C681   1.380       .  A
C680        C704   1.482   1_554  S
C681        H683   1.081       .  S
N684        N685   1.326       .  A
N684        C688   1.348       .  A
N685        C686   1.347       .  A
C686        C687   1.392       .  A
C686        H689   1.081       .  S
C687        C688   1.395       .  A
C687       C2173   1.506       .  S
C688        H690   1.079       .  S
N691        N692   1.320       .  A
N691        C695   1.356       .  A
N691       Cu699   2.094       .  S
N692        C693   1.338       .  A
N692       Cu698   2.065       .  S
C693        C694   1.383       .  A
C693        H696   1.081       .  S
C694        C695   1.393       .  A
C694        C718   1.484       .  S
C695        H697   1.082       .  S
Cu698       N701   2.065       .  S
Cu699       N709   2.098       .  S
Cu700       N702   2.091       .  S
Cu700       N708   2.096       .  S
N701        N702   1.320       .  A
N701        C705   1.338       .  A
N702        C703   1.355       .  A
C703        C704   1.392       .  A
C703        H706   1.082       .  S
C704        C705   1.383       .  A
C705        H707   1.081       .  S
N708        N709   1.325       .  A
N708        C712   1.346       .  A
N709        C710   1.346       .  A
C710        C711   1.393       .  A
C710        H713   1.078       .  S
C711        C712   1.393       .  A
C711       C2476   1.504       .  S
C712        H714   1.080       .  S
N715        N716   1.320       .  A
N715        C719   1.357       .  A
N715       Cu723   2.107       .  S
N716        C717   1.337       .  A
N716       Cu722   2.054       .  S
C717        C718   1.380       .  A
C717        H720   1.081       .  S
C718        C719   1.396       .  A
C719        H721   1.082       .  S
Cu722       N725   2.055       .  S
Cu723       N733   2.112       .  S
Cu724       N726   2.100       .  S
Cu724       N732   2.104       .  S
N725        N726   1.319       .  A
N725        C729   1.337       .  A
N726        C727   1.357       .  A
C727        C728   1.394       .  A
C727        H730   1.082       .  S
C728        C729   1.381       .  A
C729        H731   1.082       .  S
N732        N733   1.327       .  A
N732        C736   1.347       .  A
N733        C734   1.350       .  A
C734        C735   1.393       .  A
C734        H737   1.081       .  S
C735        C736   1.389       .  A
C735       C2164   1.501       .  S
C736        H738   1.081       .  S
C739        C740   1.409       .  A
C739        C744   1.411       .  A
C739       C2152   1.498       .  S
C740        C741   1.405       .  A
C740        H745   1.083       .  S
C741        C742   1.404       .  A
C741       C2137   1.489       .  S
C742        C743   1.407       .  A
C742        H746   1.084       .  S
C743        C744   1.410       .  A
C743       C2128   1.493       .  S
C744        H747   1.083       .  S
C748        C749   1.407       .  A
C748        C753   1.408       .  A
C748       C2113   1.495       .  S
C749        C750   1.406       .  A
C749        H754   1.083       .  S
C750        C751   1.408       .  A
C750       C2101   1.493       .  S
C751        C752   1.409       .  A
C751        H755   1.083       .  S
C752        C753   1.408       .  A
C752       C2125   1.493       .  S
C753        H756   1.083       .  S
C757        C758   1.410       .  A
C757        C762   1.409       .  A
C757       C2569   1.499       .  S
C758        C759   1.409       .  A
C758        H763   1.083       .  S
C759        C760   1.407       .  A
C759       C2089   1.494       .  S
C760        C761   1.407       .  A
C760        H764   1.083       .  S
C761        C762   1.408       .  A
C761       C2104   1.496       .  S
C762        H765   1.083       .  S
C766        C767   1.409       .  A
C766        C771   1.411       .  A
C766       C2353   1.499       .  S
C767        C768   1.407       .  A
C767        H772   1.084       .  S
C768        C769   1.406       .  A
C768       C2140   1.490       .  S
C769        C770   1.407       .  A
C769        H773   1.083       .  S
C770        C771   1.409       .  A
C770       C2077   1.496       .  S
C771        H774   1.082       .  S
C775        C776   1.410       .  A
C775        C780   1.411       .  A
C775       C2224   1.503       .  S
C776        C777   1.409       .  A
C776        H781   1.083       .  S
C777        C778   1.409       .  A
C777       C2092   1.498       .  S
C778        C779   1.408       .  A
C778        H782   1.083       .  S
C779        C780   1.409       .  A
C779       C2065   1.498       .  S
C780        H783   1.082       .  S
C784        C785   1.410       .  A
C784        C789   1.411       .  A
C784       C2161   1.502       .  S
C785        C786   1.409       .  A
C785        H790   1.083       .  S
C786        C787   1.409       .  A
C786       C2080   1.497       .  S
C787        C788   1.407       .  A
C787        H791   1.084       .  S
C788        C789   1.410       .  A
C788       C2068   1.497       .  S
C789        H792   1.083       .  S
N793        N794   1.319       .  A
N793        C797   1.356       .  A
N793       Cu801   2.088       .  S
N794        C795   1.336       .  A
N794       Cu800   2.061       .  S
C795        C796   1.383       .  A
C795        H798   1.081       .  S
C796        C797   1.392       .  A
C796        C820   1.480       .  S
C797        H799   1.082       .  S
Cu800       N803   2.061       .  S
Cu801       N811   2.093       .  S
Cu802       N804   2.096       .  S
Cu802       N810   2.101       .  S
N803        N804   1.320       .  A
N803        C807   1.338       .  A
N804        C805   1.355       .  A
C805        C806   1.392       .  A
C805        H808   1.082       .  S
C806        C807   1.383       .  A
C806        C854   1.482   1_565  S
C807        H809   1.081       .  S
N810        N811   1.325       .  A
N810        C814   1.347       .  A
N811        C812   1.345       .  A
C812        C813   1.392       .  A
C812        H815   1.079       .  S
C813        C814   1.394       .  A
C813       C2053   1.504       .  S
C814        H816   1.081       .  S
N817        N818   1.318       .  A
N817        C821   1.358       .  A
N817       Cu825   2.105       .  S
N818        C819   1.333       .  A
N818       Cu824   2.037       .  S
C819        C820   1.377       .  A
C819        H822   1.081       .  S
C820        C821   1.397       .  A
C821        H823   1.082       .  S
Cu824       N827   2.036       .  S
Cu825       N835   2.112       .  S
Cu826       N828   2.110       .  S
Cu826       N834   2.116       .  S
N827        N828   1.317       .  A
N827        C831   1.336       .  A
N828        C829   1.357       .  A
C829        C830   1.397       .  A
C829        H832   1.082       .  S
C830        C831   1.378       .  A
C830        C878   1.481   1_565  S
C831        H833   1.082       .  S
N834        N835   1.327       .  A
N834        C838   1.349       .  A
N835        C836   1.348       .  A
C836        C837   1.394       .  A
C836        H839   1.081       .  S
C837        C838   1.395       .  A
C837       C2404   1.511       .  S
C838        H840   1.078       .  S
N841        N842   1.318       .  A
N841        C845   1.357       .  A
N841       Cu849   2.107       .  S
N842        C843   1.336       .  A
N842       Cu848   2.040       .  S
C843        C844   1.378       .  A
C843        H846   1.081       .  S
C844        C845   1.397       .  A
C844        C868   1.481       .  S
C845        H847   1.082       .  S
Cu848       N851   2.041       .  S
Cu849       N859   2.113       .  S
Cu850       N852   2.109       .  S
Cu850       N858   2.115       .  S
N851        N852   1.318       .  A
N851        C855   1.336       .  A
N852        C853   1.358       .  A
C853        C854   1.397       .  A
C853        H856   1.082       .  S
C854        C855   1.379       .  A
C855        H857   1.081       .  S
N858        N859   1.328       .  A
N858        C862   1.349       .  A
N859        C860   1.349       .  A
C860        C861   1.393       .  A
C860        H863   1.079       .  S
C861        C862   1.393       .  A
C861       C2044   1.508       .  S
C862        H864   1.081       .  S
N865        N866   1.320       .  A
N865        C869   1.353       .  A
N865       Cu873   2.085       .  S
N866        C867   1.340       .  A
N866       Cu872   2.072       .  S
C867        C868   1.385       .  A
C867        H870   1.081       .  S
C868        C869   1.389       .  A
C869        H871   1.082       .  S
Cu872       N875   2.071       .  S
Cu873       N883   2.089       .  S
Cu874       N876   2.089       .  S
Cu874       N882   2.091       .  S
N875        N876   1.321       .  A
N875        C879   1.339       .  A
N876        C877   1.354       .  A
C877        C878   1.390       .  A
C877        H880   1.082       .  S
C878        C879   1.384       .  A
C879        H881   1.081       .  S
N882        N883   1.324       .  A
N882        C886   1.345       .  A
N883        C884   1.347       .  A
C884        C885   1.390       .  A
C884        H887   1.080       .  S
C885        C886   1.390       .  A
C885       C2116   1.496       .  S
C886        H888   1.081       .  S
N889        N890   1.319       .  A
N889        C893   1.355       .  A
N889       Cu897   2.095       .  S
N890        C891   1.337       .  A
N890       Cu896   2.054       .  S
C891        C892   1.380       .  A
C891        H894   1.081       .  S
C892        C893   1.393       .  A
C892        C926   1.479       .  S
C893        H895   1.082       .  S
Cu896       N899   2.054       .  S
Cu897       N907   2.100       .  S
Cu898       N900   2.112       .  S
Cu898       N906   2.116       .  S
N899        N900   1.319       .  A
N899        C903   1.337       .  A
N900        C901   1.360       .  A
C901        C902   1.398       .  A
C901        H904   1.082       .  S
C902        C903   1.382       .  A
C902        C974   1.489   1_545  S
C903        H905   1.081       .  S
N906        N907   1.327       .  A
N906        C910   1.348       .  A
N907        C908   1.349       .  A
C908        C909   1.391       .  A
C908        H911   1.080       .  S
C909        C910   1.392       .  A
C909       C2029   1.503       .  S
C910        H912   1.081       .  S
N913        N914   1.320       .  A
N913        C917   1.355       .  A
N913       Cu921   2.097       .  S
N914        C915   1.338       .  A
N914       Cu920   2.059       .  S
C915        C916   1.381       .  A
C915        H918   1.081       .  S
C916        C917   1.393       .  A
C916        C940   1.482   1_545  S
C917        H919   1.082       .  S
Cu920       N923   2.058       .  S
Cu921       N931   2.100       .  S
Cu922       N924   2.087       .  S
Cu922       N930   2.091       .  S
N923        N924   1.319       .  A
N923        C927   1.338       .  A
N924        C925   1.354       .  A
C925        C926   1.392       .  A
C925        H928   1.082       .  S
C926        C927   1.382       .  A
C927        H929   1.081       .  S
N930        N931   1.325       .  A
N930        C934   1.345       .  A
N931        C932   1.347       .  A
C932        C933   1.393       .  A
C932        H935   1.081       .  S
C933        C934   1.391       .  A
C933       C2017   1.501       .  S
C934        H936   1.079       .  S
N937        N938   1.319       .  A
N937        C941   1.356       .  A
N937       Cu945   2.101       .  S
N938        C939   1.338       .  A
N938       Cu944   2.055       .  S
C939        C940   1.381       .  A
C939        H942   1.081       .  S
C940        C941   1.394       .  A
C941        H943   1.082       .  S
Cu944       N947   2.054       .  S
Cu945       N955   2.105       .  S
Cu946       N948   2.099       .  S
Cu946       N954   2.104       .  S
N947        N948   1.320       .  A
N947        C951   1.337       .  A
N948        C949   1.355       .  A
C949        C950   1.394       .  A
C949        H952   1.082       .  S
C950        C951   1.380       .  A
C950        C964   1.481       .  S
C951        H953   1.081       .  S
N954        N955   1.327       .  A
N954        C958   1.349       .  A
N955        C956   1.347       .  A
C956        C957   1.390       .  A
C956        H959   1.081       .  S
C957        C958   1.391       .  A
C957       C2005   1.500       .  S
C958        H960   1.081       .  S
N961        N962   1.319       .  A
N961        C965   1.355       .  A
N961       Cu969   2.093       .  S
N962        C963   1.338       .  A
N962       Cu968   2.058       .  S
C963        C964   1.382       .  A
C963        H966   1.081       .  S
C964        C965   1.392       .  A
C965        H967   1.082       .  S
Cu968       N971   2.059       .  S
Cu969       N979   2.097       .  S
Cu970       N972   2.110       .  S
Cu970       N978   2.114       .  S
N971        N972   1.319       .  A
N971        C975   1.337       .  A
N972        C973   1.359       .  A
C973        C974   1.397       .  A
C973        H976   1.082       .  S
C974        C975   1.382       .  A
C975        H977   1.081       .  S
N978        N979   1.327       .  A
N978        C982   1.348       .  A
N979        C980   1.348       .  A
C980        C981   1.390       .  A
C980        H983   1.080       .  S
C981        C982   1.392       .  A
C981       C1993   1.502       .  S
C982        H984   1.081       .  S
C985        C986   1.409       .  A
C985        C990   1.409       .  A
C985       C2176   1.498       .  S
C986        C987   1.409       .  A
C986        H991   1.083       .  S
C987        C988   1.409       .  A
C987       C1984   1.497       .  S
C988        C989   1.410       .  A
C988        H992   1.083       .  S
C989        C990   1.409       .  A
C989       C1969   1.497       .  S
C990        H993   1.083       .  S
C994        C995   1.411       .  A
C994        C999   1.411       .  A
C994       C1957   1.501       .  S
C995        C996   1.408       .  A
C995       H1000   1.083       .  S
C996        C997   1.408       .  A
C996       C1945   1.496       .  S
C997        C998   1.408       .  A
C997       H1001   1.084       .  S
C998        C999   1.410       .  A
C998       C1972   1.496       .  S
C999       H1002   1.083       .  S
C1003      C1004   1.406       .  A
C1003      C1008   1.411       .  A
C1003      C1933   1.497       .  S
C1004      C1005   1.404       .  A
C1004      H1009   1.083       .  S
C1005      C1006   1.408       .  A
C1005      C1921   1.493       .  S
C1006      C1007   1.411       .  A
C1006      H1010   1.083       .  S
C1007      C1008   1.410       .  A
C1007      C1948   1.497       .  S
C1008      H1011   1.083       .  S
C1012      C1013   1.412       .  A
C1012      C1017   1.411       .  A
C1012      C2545   1.502       .  S
C1013      C1014   1.409       .  A
C1013      H1018   1.083       .  S
C1014      C1015   1.407       .  A
C1014      C1981   1.497       .  S
C1015      C1016   1.407       .  A
C1015      H1019   1.083       .  S
C1016      C1017   1.408       .  A
C1016      C1909   1.490       .  S
C1017      H1020   1.082       .  S
C1021      C1022   1.412       .  A
C1021      C1026   1.408       .  A
C1021      C2056   1.498       .  S
C1022      C1023   1.410       .  A
C1022      H1027   1.083       .  S
C1023      C1024   1.406       .  A
C1023      C1924   1.493       .  S
C1024      C1025   1.404       .  A
C1024      H1028   1.084       .  S
C1025      C1026   1.404       .  A
C1025      C1897   1.488       .  S
C1026      H1029   1.083       .  S
C1030      C1031   1.410       .  A
C1030      C1035   1.409       .  A
C1030      C1996   1.498       .  S
C1031      C1032   1.408       .  A
C1031      H1036   1.083       .  S
C1032      C1033   1.406       .  A
C1032      C1912   1.490       .  S
C1033      C1034   1.406       .  A
C1033      H1037   1.084       .  S
C1034      C1035   1.407       .  A
C1034      C1900   1.491       .  S
C1035      H1038   1.083       .  S
N1039      N1040   1.319       .  A
N1039      C1043   1.356       .  A
N1039     Cu1047   2.099       .  S
N1040      C1041   1.338       .  A
N1040     Cu1046   2.051       .  S
C1041      C1042   1.380       .  A
C1041      H1044   1.082       .  S
C1042      C1043   1.393       .  A
C1042      C1090   1.478   1_655  S
C1043      H1045   1.082       .  S
Cu1046     N1049   2.050       .  S
Cu1047     N1057   2.103       .  S
Cu1048     N1050   2.107       .  S
Cu1048     N1056   2.112       .  S
N1049      N1050   1.320       .  A
N1049      C1053   1.336       .  A
N1050      C1051   1.357       .  A
C1051      C1052   1.395       .  A
C1051      H1054   1.082       .  S
C1052      C1053   1.378       .  A
C1052      C1066   1.479       .  S
C1053      H1055   1.082       .  S
N1056      N1057   1.327       .  A
N1056      C1060   1.350       .  A
N1057      C1058   1.346       .  A
C1058      C1059   1.391       .  A
C1058      H1061   1.079       .  S
C1059      C1060   1.393       .  A
C1059      C1885   1.504       .  S
C1060      H1062   1.081       .  S
N1063      N1064   1.320       .  A
N1063      C1067   1.356       .  A
N1063     Cu1071   2.096       .  S
N1064      C1065   1.337       .  A
N1064     Cu1070   2.058       .  S
C1065      C1066   1.381       .  A
C1065      H1068   1.082       .  S
C1066      C1067   1.393       .  A
C1067      H1069   1.082       .  S
Cu1070     N1073   2.059       .  S
Cu1071     N1081   2.101       .  S
Cu1072     N1074   2.102       .  S
Cu1072     N1080   2.106       .  S
N1073      N1074   1.320       .  A
N1073      C1077   1.338       .  A
N1074      C1075   1.356       .  A
C1075      C1076   1.394       .  A
C1075      H1078   1.082       .  S
C1076      C1077   1.381       .  A
C1076      C1114   1.482   1_655  S
C1077      H1079   1.082       .  S
N1080      N1081   1.326       .  A
N1080      C1084   1.349       .  A
N1081      C1082   1.347       .  A
C1082      C1083   1.392       .  A
C1082      H1085   1.079       .  S
C1083      C1084   1.392       .  A
C1083      C2728   1.504       .  S
C1084      H1086   1.081       .  S
N1087      N1088   1.319       .  A
N1087      C1091   1.356       .  A
N1087     Cu1095   2.096       .  S
N1088      C1089   1.337       .  A
N1088     Cu1094   2.052       .  S
C1089      C1090   1.380       .  A
C1089      H1092   1.082       .  S
C1090      C1091   1.393       .  A
C1091      H1093   1.082       .  S
Cu1094     N1097   2.053       .  S
Cu1095     N1105   2.101       .  S
Cu1096     N1098   2.101       .  S
Cu1096     N1104   2.106       .  S
N1097      N1098   1.319       .  A
N1097      C1101   1.336       .  A
N1098      C1099   1.357       .  A
C1099      C1100   1.395       .  A
C1099      H1102   1.082       .  S
C1100      C1101   1.380       .  A
C1100      C1124   1.482       .  S
C1101      H1103   1.081       .  S
N1104      N1105   1.326       .  A
N1104      C1108   1.348       .  A
N1105      C1106   1.346       .  A
C1106      C1107   1.391       .  A
C1106      H1109   1.080       .  S
C1107      C1108   1.394       .  A
C1107      C1936   1.505       .  S
C1108      H1110   1.079       .  S
N1111      N1112   1.319       .  A
N1111      C1115   1.356       .  A
N1111     Cu1119   2.099       .  S
N1112      C1113   1.338       .  A
N1112     Cu1118   2.055       .  S
C1113      C1114   1.381       .  A
C1113      H1116   1.082       .  S
C1114      C1115   1.394       .  A
C1115      H1117   1.082       .  S
Cu1118     N1121   2.055       .  S
Cu1119     N1129   2.103       .  S
Cu1120     N1122   2.099       .  S
Cu1120     N1128   2.104       .  S
N1121      N1122   1.319       .  A
N1121      C1125   1.337       .  A
N1122      C1123   1.357       .  A
C1123      C1124   1.394       .  A
C1123      H1126   1.082       .  S
C1124      C1125   1.381       .  A
C1125      H1127   1.081       .  S
N1128      N1129   1.326       .  A
N1128      C1132   1.347       .  A
N1129      C1130   1.348       .  A
C1130      C1131   1.393       .  A
C1130      H1133   1.079       .  S
C1131      C1132   1.393       .  A
C1131      C2425   1.505       .  S
C1132      H1134   1.081       .  S
N1135      N1136   1.319       .  A
N1135      C1139   1.354       .  A
N1135     Cu1143   2.095       .  S
N1136      C1137   1.338       .  A
N1136     Cu1142   2.056       .  S
C1137      C1138   1.382       .  A
C1137      H1140   1.081       .  S
C1138      C1139   1.393       .  A
C1138      C1162   1.481       .  S
C1139      H1141   1.082       .  S
Cu1142     N1145   2.056       .  S
Cu1143     N1153   2.099       .  S
Cu1144     N1146   2.094       .  S
Cu1144     N1152   2.099       .  S
N1145      N1146   1.320       .  A
N1145      C1149   1.338       .  A
N1146      C1147   1.355       .  A
C1147      C1148   1.391       .  A
C1147      H1150   1.082       .  S
C1148      C1149   1.379       .  A
C1148      C1220   1.475   1_545  S
C1149      H1151   1.082       .  S
N1152      N1153   1.325       .  A
N1152      C1156   1.347       .  A
N1153      C1154   1.346       .  A
C1154      C1155   1.394       .  A
C1154      H1157   1.078       .  S
C1155      C1156   1.394       .  A
C1155      C1873   1.508       .  S
C1156      H1158   1.080       .  S
N1159      N1160   1.319       .  A
N1159      C1163   1.355       .  A
N1159     Cu1167   2.099       .  S
N1160      C1161   1.338       .  A
N1160     Cu1166   2.053       .  S
C1161      C1162   1.381       .  A
C1161      H1164   1.082       .  S
C1162      C1163   1.394       .  A
C1163      H1165   1.082       .  S
Cu1166     N1169   2.052       .  S
Cu1167     N1177   2.105       .  S
Cu1168     N1170   2.115       .  S
Cu1168     N1176   2.120       .  S
N1169      N1170   1.320       .  A
N1169      C1173   1.336       .  A
N1170      C1171   1.359       .  A
C1171      C1172   1.398       .  A
C1171      H1174   1.082       .  S
C1172      C1173   1.379       .  A
C1172      C1196   1.486   1_545  S
C1173      H1175   1.081       .  S
N1176      N1177   1.327       .  A
N1176      C1180   1.350       .  A
N1177      C1178   1.348       .  A
C1178      C1179   1.394       .  A
C1178      H1181   1.079       .  S
C1179      C1180   1.396       .  A
C1179      C2260   1.511       .  S
C1180      H1182   1.081       .  S
N1183      N1184   1.320       .  A
N1183      C1187   1.359       .  A
N1183     Cu1191   2.110       .  S
N1184      C1185   1.339       .  A
N1184     Cu1190   2.063       .  S
C1185      C1186   1.382       .  A
C1185      H1188   1.082       .  S
C1186      C1187   1.396       .  A
C1186      C1210   1.486       .  S
C1187      H1189   1.082       .  S
Cu1190     N1193   2.063       .  S
Cu1191     N1201   2.115       .  S
Cu1192     N1194   2.101       .  S
Cu1192     N1200   2.105       .  S
N1193      N1194   1.320       .  A
N1193      C1197   1.338       .  A
N1194      C1195   1.357       .  A
C1195      C1196   1.394       .  A
C1195      H1198   1.082       .  S
C1196      C1197   1.383       .  A
C1197      H1199   1.081       .  S
N1200      N1201   1.327       .  A
N1200      C1204   1.350       .  A
N1201      C1202   1.348       .  A
C1202      C1203   1.394       .  A
C1202      H1205   1.079       .  S
C1203      C1204   1.391       .  A
C1203      C2596   1.505       .  S
C1204      H1206   1.081       .  S
N1207      N1208   1.320       .  A
N1207      C1211   1.360       .  A
N1207     Cu1215   2.119       .  S
N1208      C1209   1.337       .  A
N1208     Cu1214   2.051       .  S
C1209      C1210   1.379       .  A
C1209      H1212   1.082       .  S
C1210      C1211   1.398       .  A
C1211      H1213   1.082       .  S
Cu1214     N1217   2.051       .  S
Cu1215     N1225   2.123       .  S
Cu1216     N1218   2.091       .  S
Cu1216     N1224   2.096       .  S
N1217      N1218   1.318       .  A
N1217      C1221   1.337       .  A
N1218      C1219   1.355       .  A
C1219      C1220   1.392       .  A
C1219      H1222   1.082       .  S
C1220      C1221   1.379       .  A
C1221      H1223   1.082       .  S
N1224      N1225   1.327       .  A
N1224      C1228   1.345       .  A
N1225      C1226   1.351       .  A
C1226      C1227   1.395       .  A
C1226      H1229   1.081       .  S
C1227      C1228   1.389       .  A
C1227      C1861   1.504       .  S
C1228      H1230   1.079       .  S
C1231      C1232   1.408       .  A
C1231      C1236   1.410       .  A
C1231      C1888   1.501       .  S
C1232      C1233   1.407       .  A
C1232      H1237   1.082       .  S
C1233      C1234   1.410       .  A
C1233      C1837   1.499       .  S
C1234      C1235   1.409       .  A
C1234      H1238   1.083       .  S
C1235      C1236   1.411       .  A
C1235      C1849   1.498       .  S
C1236      H1239   1.083       .  S
C1240      C1241   1.407       .  A
C1240      C1245   1.409       .  A
C1240      C1864   1.497       .  S
C1241      C1242   1.407       .  A
C1241      H1246   1.083       .  S
C1242      C1243   1.409       .  A
C1242      C1828   1.493       .  S
C1243      C1244   1.410       .  A
C1243      H1247   1.084       .  S
C1244      C1245   1.410       .  A
C1244      C1852   1.499       .  S
C1245      H1248   1.083       .  S
C1249      C1250   1.411       .  A
C1249      C1254   1.411       .  A
C1249      C2008   1.503       .  S
C1250      C1251   1.408       .  A
C1250      H1255   1.083       .  S
C1251      C1252   1.406       .  A
C1251      C1825   1.494       .  S
C1252      C1253   1.406       .  A
C1252      H1256   1.083       .  S
C1253      C1254   1.410       .  A
C1253      C1813   1.495       .  S
C1254      H1257   1.083       .  S
C1258      C1259   1.410       .  A
C1258      C1263   1.409       .  A
C1258      C2536   1.501       .  S
C1259      C1260   1.410       .  A
C1259      H1264   1.082       .  S
C1260      C1261   1.408       .  A
C1260      C1801   1.494       .  S
C1261      C1262   1.407       .  A
C1261      H1265   1.084       .  S
C1262      C1263   1.407       .  A
C1262      C1816   1.494       .  S
C1263      H1266   1.083       .  S
C1267      C1268   1.408       .  A
C1267      C1272   1.407       .  A
C1267      C2368   1.494       .  S
C1268      C1269   1.407       .  A
C1268      H1273   1.083       .  S
C1269      C1270   1.407       .  A
C1269      C1804   1.493       .  S
C1270      C1271   1.408       .  A
C1270      H1274   1.083       .  S
C1271      C1272   1.407       .  A
C1271      C1789   1.492       .  S
C1272      H1275   1.083       .  S
C1276      C1277   1.412       .  A
C1276      C1281   1.409       .  A
C1276      C1777   1.500       .  S
C1277      C1278   1.411       .  A
C1277      H1282   1.083       .  S
C1278      C1279   1.405       .  A
C1278      C1840   1.498       .  S
C1279      C1280   1.405       .  A
C1279      H1283   1.082       .  S
C1280      C1281   1.407       .  A
C1280      C1792   1.492       .  S
C1281      H1284   1.082       .  S
C1285      C1286   1.409       .  A
C1285      C1290   1.408       .  A
C1285      C2212   1.498       .  S
C1286      C1287   1.408       .  A
C1286      H1291   1.083       .  S
C1287      C1288   1.410       .  A
C1287      C1753   1.498       .  S
C1288      C1289   1.408       .  A
C1288      H1292   1.083       .  S
C1289      C1290   1.407       .  A
C1289      C1765   1.495       .  S
C1290      H1293   1.082       .  S
C1294      C1295   1.411       .  A
C1294      C1299   1.409       .  A
C1294      C2032   1.500       .  S
C1295      C1296   1.410       .  A
C1295      H1300   1.083       .  S
C1296      C1297   1.408       .  A
C1296      C1768   1.494       .  S
C1297      C1298   1.406       .  A
C1297      H1301   1.084       .  S
C1298      C1299   1.405       .  A
C1298      C1741   1.491       .  S
C1299      H1302   1.083       .  S
C1303      C1304   1.415       .  A
C1303      C1308   1.411       .  A
C1303      C2188   1.504       .  S
C1304      C1305   1.411       .  A
C1304      H1309   1.083       .  S
C1305      C1306   1.405       .  A
C1305      C1756   1.496       .  S
C1306      C1307   1.404       .  A
C1306      H1310   1.083       .  S
C1307      C1308   1.407       .  A
C1307      C1732   1.493       .  S
C1308      H1311   1.081       .  S
C1312      C1313   1.407       .  A
C1312      C1317   1.411       .  A
C1312      C1720   1.496       .  S
C1313      C1314   1.406       .  A
C1313      H1318   1.083       .  S
C1314      C1315   1.406       .  A
C1314      C1729   1.490       .  S
C1315      C1316   1.407       .  A
C1315      H1319   1.083       .  S
C1316      C1317   1.409       .  A
C1316      C1705   1.496       .  S
C1317      H1320   1.083       .  S
C1321      C1322   1.412       .  A
C1321      C1326   1.414       .  A
C1321      C2041   1.504       .  S
C1322      C1323   1.407       .  A
C1322      H1327   1.082       .  S
C1323      C1324   1.405       .  A
C1323      C1744   1.490       .  S
C1324      C1325   1.404       .  A
C1324      H1328   1.084       .  S
C1325      C1326   1.411       .  A
C1325      C1693   1.493       .  S
C1326      H1329   1.083       .  S
C1330      C1331   1.407       .  A
C1330      C1335   1.407       .  A
C1330      C1681   1.495       .  S
C1331      C1332   1.408       .  A
C1331      H1336   1.083       .  S
C1332      C1333   1.411       .  A
C1332      C1708   1.497       .  S
C1333      C1334   1.410       .  A
C1333      H1337   1.083       .  S
C1334      C1335   1.407       .  A
C1334      C1696   1.494       .  S
C1335      H1338   1.083       .  S
N1339      N1340   1.320       .  A
N1339      C1343   1.357       .  A
N1339     Cu1347   2.106       .  S
N1340      C1341   1.337       .  A
N1340     Cu1346   2.054       .  S
C1341      C1342   1.380       .  A
C1341      H1344   1.082       .  S
C1342      C1343   1.395       .  A
C1342      C1366   1.483       .  S
C1343      H1345   1.082       .  S
Cu1346     N1349   2.054       .  S
Cu1347     N1357   2.111       .  S
Cu1348     N1350   2.095       .  S
Cu1348     N1356   2.100       .  S
N1349      N1350   1.319       .  A
N1349      C1353   1.339       .  A
N1350      C1351   1.355       .  A
C1351      C1352   1.392       .  A
C1351      H1354   1.082       .  S
C1352      C1353   1.379       .  A
C1352      C1390   1.476   1_655  S
C1353      H1355   1.082       .  S
N1356      N1357   1.327       .  A
N1356      C1360   1.347       .  A
N1357      C1358   1.349       .  A
C1358      C1359   1.394       .  A
C1358      H1361   1.079       .  S
C1359      C1360   1.391       .  A
C1359      C1669   1.504       .  S
C1360      H1362   1.081       .  S
N1363      N1364   1.320       .  A
N1363      C1367   1.357       .  A
N1363     Cu1371   2.105       .  S
N1364      C1365   1.338       .  A
N1364     Cu1370   2.059       .  S
C1365      C1366   1.381       .  A
C1365      H1368   1.082       .  S
C1366      C1367   1.395       .  A
C1367      H1369   1.082       .  S
Cu1370     N1373   2.058       .  S
Cu1371     N1381   2.110       .  S
Cu1372     N1374   2.089       .  S
Cu1372     N1380   2.093       .  S
N1373      N1374   1.319       .  A
N1373      C1377   1.337       .  A
N1374      C1375   1.355       .  A
C1375      C1376   1.392       .  A
C1375      H1378   1.082       .  S
C1376      C1377   1.381       .  A
C1376      C1424   1.479   1_655  S
C1377      H1379   1.082       .  S
N1380      N1381   1.326       .  A
N1380      C1384   1.345       .  A
N1381      C1382   1.349       .  A
C1382      C1383   1.395       .  A
C1382      H1385   1.081       .  S
C1383      C1384   1.391       .  A
C1383      C1780   1.505       .  S
C1384      H1386   1.078       .  S
N1387      N1388   1.321       .  A
N1387      C1391   1.354       .  A
N1387     Cu1395   2.098       .  S
N1388      C1389   1.339       .  A
N1388     Cu1394   2.059       .  S
C1389      C1390   1.380       .  A
C1389      H1392   1.082       .  S
C1390      C1391   1.391       .  A
C1391      H1393   1.082       .  S
Cu1394     N1397   2.060       .  S
Cu1395     N1405   2.101       .  S
Cu1396     N1398   2.095       .  S
Cu1396     N1404   2.097       .  S
N1397      N1398   1.320       .  A
N1397      C1401   1.340       .  A
N1398      C1399   1.354       .  A
C1399      C1400   1.391       .  A
C1399      H1402   1.082       .  S
C1400      C1401   1.381       .  A
C1400      C1414   1.477       .  S
C1401      H1403   1.082       .  S
N1404      N1405   1.325       .  A
N1404      C1408   1.347       .  A
N1405      C1406   1.348       .  A
C1406      C1407   1.393       .  A
C1406      H1409   1.079       .  S
C1407      C1408   1.391       .  A
C1407      C1717   1.502       .  S
C1408      H1410   1.081       .  S
N1411      N1412   1.321       .  A
N1411      C1415   1.355       .  A
N1411     Cu1419   2.107       .  S
N1412      C1413   1.339       .  A
N1412     Cu1418   2.053       .  S
C1413      C1414   1.379       .  A
C1413      H1416   1.082       .  S
C1414      C1415   1.392       .  A
C1415      H1417   1.082       .  S
Cu1418     N1421   2.052       .  S
Cu1419     N1429   2.111       .  S
Cu1420     N1422   2.095       .  S
Cu1420     N1428   2.099       .  S
N1421      N1422   1.319       .  A
N1421      C1425   1.337       .  A
N1422      C1423   1.355       .  A
C1423      C1424   1.393       .  A
C1423      H1426   1.082       .  S
C1424      C1425   1.380       .  A
C1425      H1427   1.082       .  S
N1428      N1429   1.327       .  A
N1428      C1432   1.346       .  A
N1429      C1430   1.351       .  A
C1430      C1431   1.394       .  A
C1430      H1433   1.080       .  S
C1431      C1432   1.388       .  A
C1431      C1960   1.501       .  S
C1432      H1434   1.081       .  S
N1435      N1436   1.319       .  A
N1435      C1439   1.357       .  A
N1435     Cu1443   2.107       .  S
N1436      C1437   1.338       .  A
N1436     Cu1442   2.050       .  S
C1437      C1438   1.379       .  A
C1437      H1440   1.082       .  S
C1438      C1439   1.396       .  A
C1438      C1486   1.481   1_455  S
C1439      H1441   1.082       .  S
Cu1442     N1445   2.048       .  S
Cu1443     N1453   2.112       .  S
Cu1444     N1446   2.098       .  S
Cu1444     N1452   2.104       .  S
N1445      N1446   1.319       .  A
N1445      C1449   1.334       .  A
N1446      C1447   1.357       .  A
C1447      C1448   1.395       .  A
C1447      H1450   1.082       .  S
C1448      C1449   1.380       .  A
C1448      C1472   1.481       .  S
C1449      H1451   1.081       .  S
N1452      N1453   1.328       .  A
N1452      C1456   1.348       .  A
N1453      C1454   1.348       .  A
C1454      C1455   1.392       .  A
C1454      H1457   1.079       .  S
C1455      C1456   1.391       .  A
C1455      C1684   1.503       .  S
C1456      H1458   1.081       .  S
N1459      N1460   1.318       .  A
N1459      C1463   1.359       .  A
N1459     Cu1467   2.111       .  S
N1460      C1461   1.336       .  A
N1460     Cu1466   2.047       .  S
C1461      C1462   1.379       .  A
C1461      H1464   1.082       .  S
C1462      C1463   1.397       .  A
C1462      C1510   1.483   1_455  S
C1463      H1465   1.082       .  S
Cu1466     N1469   2.047       .  S
Cu1467     N1477   2.117       .  S
Cu1468     N1470   2.097       .  S
Cu1468     N1476   2.103       .  S
N1469      N1470   1.318       .  A
N1469      C1473   1.334       .  A
N1470      C1471   1.357       .  A
C1471      C1472   1.395       .  A
C1471      H1474   1.082       .  S
C1472      C1473   1.380       .  A
C1473      H1475   1.081       .  S
N1476      N1477   1.328       .  A
N1476      C1480   1.348       .  A
N1477      C1478   1.348       .  A
C1478      C1479   1.394       .  A
C1478      H1481   1.081       .  S
C1479      C1480   1.392       .  A
C1479      C2149   1.506       .  S
C1480      H1482   1.079       .  S
N1483      N1484   1.320       .  A
N1483      C1487   1.356       .  A
N1483     Cu1491   2.103       .  S
N1484      C1485   1.340       .  A
N1484     Cu1490   2.067       .  S
C1485      C1486   1.382       .  A
C1485      H1488   1.082       .  S
C1486      C1487   1.393       .  A
C1487      H1489   1.082       .  S
Cu1490     N1493   2.067       .  S
Cu1491     N1501   2.106       .  S
Cu1492     N1494   2.101       .  S
Cu1492     N1500   2.105       .  S
N1493      N1494   1.320       .  A
N1493      C1497   1.339       .  A
N1494      C1495   1.357       .  A
C1495      C1496   1.394       .  A
C1495      H1498   1.082       .  S
C1496      C1497   1.384       .  A
C1496      C1520   1.486       .  S
C1497      H1499   1.081       .  S
N1500      N1501   1.326       .  A
N1500      C1504   1.348       .  A
N1501      C1502   1.347       .  A
C1502      C1503   1.394       .  A
C1502      H1505   1.078       .  S
C1503      C1504   1.393       .  A
C1503      C1657   1.508       .  S
C1504      H1506   1.081       .  S
N1507      N1508   1.318       .  A
N1507      C1511   1.359       .  A
N1507     Cu1515   2.108       .  S
N1508      C1509   1.335       .  A
N1508     Cu1514   2.047       .  S
C1509      C1510   1.379       .  A
C1509      H1512   1.082       .  S
C1510      C1511   1.397       .  A
C1511      H1513   1.082       .  S
Cu1514     N1517   2.047       .  S
Cu1515     N1525   2.114       .  S
Cu1516     N1518   2.112       .  S
Cu1516     N1524   2.118       .  S
N1517      N1518   1.318       .  A
N1517      C1521   1.336       .  A
N1518      C1519   1.359       .  A
C1519      C1520   1.398       .  A
C1519      H1522   1.082       .  S
C1520      C1521   1.380       .  A
C1521      H1523   1.081       .  S
N1524      N1525   1.328       .  A
N1524      C1528   1.349       .  A
N1525      C1526   1.349       .  A
C1526      C1527   1.393       .  A
C1526      H1529   1.081       .  S
C1527      C1528   1.395       .  A
C1527      C2236   1.510       .  S
C1528      H1530   1.079       .  S
C1531      C1532   1.413       .  A
C1531      C1536   1.409       .  A
C1531      C2197   1.504       .  S
C1532      C1533   1.413       .  A
C1532      H1537   1.083       .  S
C1533      C1534   1.408       .  A
C1533      C1633   1.500       .  S
C1534      C1535   1.405       .  A
C1534      H1538   1.083       .  S
C1535      C1536   1.406       .  A
C1535      C1645   1.491       .  S
C1536      H1539   1.082       .  S
C1540      C1541   1.407       .  A
C1540      C1545   1.405       .  A
C1540      C2020   1.492       .  S
C1541      C1542   1.408       .  A
C1541      H1546   1.083       .  S
C1542      C1543   1.411       .  A
C1542      C1636   1.499       .  S
C1543      C1544   1.411       .  A
C1543      H1547   1.083       .  S
C1544      C1545   1.405       .  A
C1544      C1621   1.494       .  S
C1545      H1548   1.083       .  S
C1549      C1550   1.411       .  A
C1549      C1554   1.411       .  A
C1549      C2380   1.503       .  S
C1550      C1551   1.408       .  A
C1550      H1555   1.083       .  S
C1551      C1552   1.405       .  A
C1551      C1612   1.492       .  S
C1552      C1553   1.405       .  A
C1552      H1556   1.083       .  S
C1553      C1554   1.408       .  A
C1553      C1648   1.491       .  S
C1554      H1557   1.082       .  S
C1558      C1559   1.410       .  A
C1558      C1563   1.410       .  A
C1558      C1876   1.498       .  S
C1559      C1560   1.408       .  A
C1559      H1564   1.083       .  S
C1560      C1561   1.407       .  A
C1560      C1624   1.493       .  S
C1561      C1562   1.406       .  A
C1561      H1565   1.084       .  S
C1562      C1563   1.409       .  A
C1562      C1597   1.496       .  S
C1563      H1566   1.083       .  S
C1567      C1568   1.409       .  A
C1567      C1572   1.413       .  A
C1567      C1672   1.503       .  S
C1568      C1569   1.406       .  A
C1568      H1573   1.082       .  S
C1569      C1570   1.406       .  A
C1569      C1609   1.495       .  S
C1570      C1571   1.408       .  A
C1570      H1574   1.083       .  S
C1571      C1572   1.412       .  A
C1571      C1585   1.499       .  S
C1572      H1575   1.082       .  S
C1576      C1577   1.408       .  A
C1576      C1581   1.409       .  A
C1576      C1660   1.502       .  S
C1577      C1578   1.410       .  A
C1577      H1582   1.083       .  S
C1578      C1579   1.411       .  A
C1578      C1600   1.498       .  S
C1579      C1580   1.411       .  A
C1579      H1583   1.083       .  S
C1580      C1581   1.408       .  A
C1580      C1588   1.500       .  S
C1581      H1584   1.082       .  S
C1585      C1586   1.406       .  A
C1585      C1590   1.414       .  A
C1586      C1587   1.404       .  A
C1586      H1591   1.083       .  S
C1587      C1588   1.414       .  A
C1587      O1592   1.371       .  S
C1588      C1589   1.407       .  A
C1589      C1590   1.405       .  A
C1589      H1593   1.083       .  S
C1590      O1594   1.372       .  S
O1592      H1596   0.992       .  S
O1594      H1595   0.992       .  S
C1597      C1598   1.408       .  A
C1597      C1602   1.411       .  A
C1598      C1599   1.407       .  A
C1598      H1603   1.083       .  S
C1599      C1600   1.413       .  A
C1599      O1604   1.371       .  S
C1600      C1601   1.407       .  A
C1601      C1602   1.403       .  A
C1601      H1605   1.083       .  S
C1602      O1606   1.371       .  S
O1604      H1608   0.992       .  S
O1606      H1607   0.992       .  S
C1609      C1610   1.407       .  A
C1609      C1614   1.413       .  A
C1610      C1611   1.403       .  A
C1610      H1615   1.083       .  S
C1611      C1612   1.412       .  A
C1611      O1616   1.372       .  S
C1612      C1613   1.405       .  A
C1613      C1614   1.402       .  A
C1613      H1617   1.083       .  S
C1614      O1618   1.371       .  S
O1616      H1620   0.992       .  S
O1618      H1619   0.992       .  S
C1621      C1622   1.408       .  A
C1621      C1626   1.410       .  A
C1622      C1623   1.405       .  A
C1622      H1627   1.083       .  S
C1623      C1624   1.411       .  A
C1623      O1628   1.372       .  S
C1624      C1625   1.406       .  A
C1625      C1626   1.402       .  A
C1625      H1629   1.083       .  S
C1626      O1630   1.371       .  S
O1628      H1632   0.992       .  S
O1630      H1631   0.992       .  S
C1633      C1634   1.406       .  A
C1633      C1638   1.415       .  A
C1634      C1635   1.404       .  A
C1634      H1639   1.083       .  S
C1635      C1636   1.414       .  A
C1635      O1640   1.372       .  S
C1636      C1637   1.407       .  A
C1637      C1638   1.406       .  A
C1637      H1641   1.083       .  S
C1638      O1642   1.371       .  S
O1640      H1644   0.991       .  S
O1642      H1643   0.991       .  S
C1645      C1646   1.405       .  A
C1645      C1650   1.411       .  A
C1646      C1647   1.404       .  A
C1646      H1651   1.084       .  S
C1647      C1648   1.412       .  A
C1647      O1652   1.372       .  S
C1648      C1649   1.404       .  A
C1649      C1650   1.403       .  A
C1649      H1653   1.083       .  S
C1650      O1654   1.371       .  S
O1652      H1656   0.992       .  S
O1654      H1655   0.993       .  S
C1657      C1658   1.411       .  A
C1657      C1662   1.416       .  A
C1658      C1659   1.407       .  A
C1658      H1663   1.081       .  S
C1659      C1660   1.412       .  A
C1659      O1664   1.372       .  S
C1660      C1661   1.405       .  A
C1661      C1662   1.404       .  A
C1661      H1665   1.083       .  S
C1662      O1666   1.369       .  S
O1664      H1668   0.991       .  S
O1666      H1667   0.992       .  S
C1669      C1670   1.410       .  A
C1669      C1674   1.415       .  A
C1670      C1671   1.405       .  A
C1670      H1675   1.081       .  S
C1671      C1672   1.412       .  A
C1671      O1676   1.371       .  S
C1672      C1673   1.408       .  A
C1673      C1674   1.404       .  A
C1673      H1677   1.083       .  S
C1674      O1678   1.370       .  S
O1676      H1680   0.992       .  S
O1678      H1679   0.991       .  S
C1681      C1682   1.404       .  A
C1681      C1686   1.410       .  A
C1682      C1683   1.405       .  A
C1682      H1687   1.084       .  S
C1683      C1684   1.416       .  A
C1683      O1688   1.370       .  S
C1684      C1685   1.410       .  A
C1685      C1686   1.404       .  A
C1685      H1689   1.082       .  S
C1686      O1690   1.372       .  S
O1688      H1692   0.992       .  S
O1690      H1691   0.991       .  S
C1693      C1694   1.407       .  A
C1693      C1698   1.410       .  A
C1694      C1695   1.406       .  A
C1694      H1699   1.084       .  S
C1695      C1696   1.411       .  A
C1695      O1700   1.372       .  S
C1696      C1697   1.406       .  A
C1697      C1698   1.404       .  A
C1697      H1701   1.083       .  S
C1698      O1702   1.371       .  S
O1700      H1704   0.992       .  S
O1702      H1703   0.992       .  S
C1705      C1706   1.406       .  A
C1705      C1710   1.413       .  A
C1706      C1707   1.404       .  A
C1706      H1711   1.083       .  S
C1707      C1708   1.414       .  A
C1707      O1712   1.372       .  S
C1708      C1709   1.406       .  A
C1709      C1710   1.404       .  A
C1709      H1713   1.083       .  S
C1710      O1714   1.372       .  S
O1712      H1716   0.992       .  S
O1714      H1715   0.992       .  S
C1717      C1718   1.410       .  A
C1717      C1722   1.416       .  A
C1718      C1719   1.404       .  A
C1718      H1723   1.082       .  S
C1719      C1720   1.412       .  A
C1719      O1724   1.372       .  S
C1720      C1721   1.404       .  A
C1721      C1722   1.403       .  A
C1721      H1725   1.083       .  S
C1722      O1726   1.369       .  S
O1724      H1728   0.992       .  S
O1726      H1727   0.991       .  S
C1729      C1730   1.406       .  A
C1729      C1734   1.411       .  A
C1730      C1731   1.403       .  A
C1730      H1735   1.083       .  S
C1731      C1732   1.412       .  A
C1731      O1736   1.371       .  S
C1732      C1733   1.406       .  A
C1733      C1734   1.402       .  A
C1733      H1737   1.083       .  S
C1734      O1738   1.372       .  S
O1736      H1740   0.993       .  S
O1738      H1739   0.993       .  S
C1741      C1742   1.405       .  A
C1741      C1746   1.411       .  A
C1742      C1743   1.403       .  A
C1742      H1747   1.084       .  S
C1743      C1744   1.411       .  A
C1743      O1748   1.372       .  S
C1744      C1745   1.404       .  A
C1745      C1746   1.404       .  A
C1745      H1749   1.083       .  S
C1746      O1750   1.371       .  S
O1748      H1752   0.991       .  S
O1750      H1751   0.993       .  S
C1753      C1754   1.405       .  A
C1753      C1758   1.414       .  A
C1754      C1755   1.402       .  A
C1754      H1759   1.083       .  S
C1755      C1756   1.413       .  A
C1755      O1760   1.372       .  S
C1756      C1757   1.406       .  A
C1757      C1758   1.407       .  A
C1757      H1761   1.083       .  S
C1758      O1762   1.371       .  S
O1760      H1764   0.991       .  S
O1762      H1763   0.992       .  S
C1765      C1766   1.405       .  A
C1765      C1770   1.413       .  A
C1766      C1767   1.404       .  A
C1766      H1771   1.083       .  S
C1767      C1768   1.412       .  A
C1767      O1772   1.372       .  S
C1768      C1769   1.405       .  A
C1769      C1770   1.405       .  A
C1769      H1773   1.083       .  S
C1770      O1774   1.372       .  S
O1772      H1776   0.987       .  S
O1774      H1775   0.987       .  S
C1777      C1778   1.405       .  A
C1777      C1782   1.412       .  A
C1778      C1779   1.405       .  A
C1778      H1783   1.083       .  S
C1779      C1780   1.417       .  A
C1779      O1784   1.370       .  S
C1780      C1781   1.409       .  A
C1781      C1782   1.406       .  A
C1781      H1785   1.081       .  S
C1782      O1786   1.372       .  S
O1784      H1788   0.991       .  S
O1786      H1787   0.992       .  S
C1789      C1790   1.407       .  A
C1789      C1794   1.410       .  A
C1790      C1791   1.404       .  A
C1790      H1795   1.083       .  S
C1791      C1792   1.412       .  A
C1791      O1796   1.371       .  S
C1792      C1793   1.406       .  A
C1793      C1794   1.401       .  A
C1793      H1797   1.083       .  S
C1794      O1798   1.371       .  S
O1796      H1800   0.992       .  S
O1798      H1799   0.992       .  S
C1801      C1802   1.406       .  A
C1801      C1806   1.412       .  A
C1802      C1803   1.404       .  A
C1802      H1807   1.083       .  S
C1803      C1804   1.412       .  A
C1803      O1808   1.372       .  S
C1804      C1805   1.406       .  A
C1805      C1806   1.404       .  A
C1805      H1809   1.083       .  S
C1806      O1810   1.371       .  S
O1808      H1812   0.993       .  S
O1810      H1811   0.992       .  S
C1813      C1814   1.405       .  A
C1813      C1818   1.414       .  A
C1814      C1815   1.402       .  A
C1814      H1819   1.083       .  S
C1815      C1816   1.411       .  A
C1815      O1820   1.371       .  S
C1816      C1817   1.406       .  A
C1817      C1818   1.406       .  A
C1817      H1821   1.084       .  S
C1818      O1822   1.372       .  S
O1820      H1824   0.992       .  S
O1822      H1823   0.992       .  S
C1825      C1826   1.406       .  A
C1825      C1830   1.413       .  A
C1826      C1827   1.404       .  A
C1826      H1831   1.083       .  S
C1827      C1828   1.412       .  A
C1827      O1832   1.372       .  S
C1828      C1829   1.405       .  A
C1829      C1830   1.404       .  A
C1829      H1833   1.084       .  S
C1830      O1834   1.372       .  S
O1832      H1836   0.992       .  S
O1834      H1835   0.991       .  S
C1837      C1838   1.406       .  A
C1837      C1842   1.414       .  A
C1838      C1839   1.405       .  A
C1838      H1843   1.083       .  S
C1839      C1840   1.414       .  A
C1839      O1844   1.373       .  S
C1840      C1841   1.406       .  A
C1841      C1842   1.403       .  A
C1841      H1845   1.083       .  S
C1842      O1846   1.371       .  S
O1844      H1848   0.994       .  S
O1846      H1847   0.995       .  S
C1849      C1850   1.406       .  A
C1849      C1854   1.414       .  A
C1850      C1851   1.404       .  A
C1850      H1855   1.083       .  S
C1851      C1852   1.413       .  A
C1851      O1856   1.371       .  S
C1852      C1853   1.408       .  A
C1853      C1854   1.407       .  A
C1853      H1857   1.083       .  S
C1854      O1858   1.371       .  S
O1856      H1860   0.992       .  S
O1858      H1859   0.993       .  S
C1861      C1862   1.409       .  A
C1861      C1866   1.418       .  A
C1862      C1863   1.406       .  A
C1862      H1867   1.082       .  S
C1863      C1864   1.411       .  A
C1863      O1868   1.372       .  S
C1864      C1865   1.404       .  A
C1865      C1866   1.403       .  A
C1865      H1869   1.083       .  S
C1866      O1870   1.370       .  S
O1868      H1872   0.992       .  S
O1870      H1871   0.991       .  S
C1873      C1874   1.411       .  A
C1873      C1878   1.418       .  A
C1874      C1875   1.404       .  A
C1874      H1879   1.081       .  S
C1875      C1876   1.410       .  A
C1875      O1880   1.372       .  S
C1876      C1877   1.404       .  A
C1877      C1878   1.404       .  A
C1877      H1881   1.083       .  S
C1878      O1882   1.369       .  S
O1880      H1884   0.991       .  S
O1882      H1883   0.990       .  S
C1885      C1886   1.410       .  A
C1885      C1890   1.416       .  A
C1886      C1887   1.407       .  A
C1886      H1891   1.082       .  S
C1887      C1888   1.413       .  A
C1887      O1892   1.371       .  S
C1888      C1889   1.406       .  A
C1889      C1890   1.403       .  A
C1889      H1893   1.083       .  S
C1890      O1894   1.370       .  S
O1892      H1896   0.992       .  S
O1894      H1895   0.991       .  S
C1897      C1898   1.404       .  A
C1897      C1902   1.411       .  A
C1898      C1899   1.402       .  A
C1898      H1903   1.084       .  S
C1899      C1900   1.411       .  A
C1899      O1904   1.371       .  S
C1900      C1901   1.406       .  A
C1901      C1902   1.403       .  A
C1901      H1905   1.083       .  S
C1902      O1906   1.372       .  S
O1904      H1908   0.991       .  S
O1906      H1907   0.991       .  S
C1909      C1910   1.405       .  A
C1909      C1914   1.410       .  A
C1910      C1911   1.405       .  A
C1910      H1915   1.083       .  S
C1911      C1912   1.410       .  A
C1911      O1916   1.371       .  S
C1912      C1913   1.405       .  A
C1913      C1914   1.403       .  A
C1913      H1917   1.084       .  S
C1914      O1918   1.371       .  S
O1916      H1920   0.994       .  S
O1918      H1919   0.994       .  S
C1921      C1922   1.405       .  A
C1921      C1926   1.412       .  A
C1922      C1923   1.405       .  A
C1922      H1927   1.084       .  S
C1923      C1924   1.414       .  A
C1923      O1928   1.372       .  S
C1924      C1925   1.404       .  A
C1925      C1926   1.402       .  A
C1925      H1929   1.083       .  S
C1926      O1930   1.372       .  S
O1928      H1932   0.990       .  S
O1930      H1931   0.991       .  S
C1933      C1934   1.406       .  A
C1933      C1938   1.409       .  A
C1934      C1935   1.404       .  A
C1934      H1939   1.083       .  S
C1935      C1936   1.417       .  A
C1935      O1940   1.369       .  S
C1936      C1937   1.411       .  A
C1937      C1938   1.403       .  A
C1937      H1941   1.081       .  S
C1938      O1942   1.371       .  S
O1940      H1944   0.991       .  S
O1942      H1943   0.991       .  S
C1945      C1946   1.405       .  A
C1945      C1950   1.412       .  A
C1946      C1947   1.404       .  A
C1946      H1951   1.083       .  S
C1947      C1948   1.411       .  A
C1947      O1952   1.371       .  S
C1948      C1949   1.408       .  A
C1949      C1950   1.407       .  A
C1949      H1953   1.083       .  S
C1950      O1954   1.372       .  S
O1952      H1956   0.993       .  S
O1954      H1955   0.992       .  S
C1957      C1958   1.408       .  A
C1957      C1962   1.412       .  A
C1958      C1959   1.408       .  A
C1958      H1963   1.083       .  S
C1959      C1960   1.414       .  A
C1959      O1964   1.371       .  S
C1960      C1961   1.409       .  A
C1961      C1962   1.403       .  A
C1961      H1965   1.082       .  S
C1962      O1966   1.372       .  S
O1964      H1968   0.992       .  S
O1966      H1967   0.992       .  S
C1969      C1970   1.407       .  A
C1969      C1974   1.412       .  A
C1970      C1971   1.405       .  A
C1970      H1975   1.083       .  S
C1971      C1972   1.412       .  A
C1971      O1976   1.371       .  S
C1972      C1973   1.407       .  A
C1973      C1974   1.405       .  A
C1973      H1977   1.083       .  S
C1974      O1978   1.372       .  S
O1976      H1980   0.993       .  S
O1978      H1979   0.992       .  S
C1981      C1982   1.406       .  A
C1981      C1986   1.413       .  A
C1982      C1983   1.404       .  A
C1982      H1987   1.083       .  S
C1983      C1984   1.412       .  A
C1983      O1988   1.371       .  S
C1984      C1985   1.407       .  A
C1985      C1986   1.406       .  A
C1985      H1989   1.083       .  S
C1986      O1990   1.372       .  S
O1988      H1992   0.993       .  S
O1990      H1991   0.992       .  S
C1993      C1994   1.408       .  A
C1993      C1998   1.416       .  A
C1994      C1995   1.403       .  A
C1994      H1999   1.082       .  S
C1995      C1996   1.411       .  A
C1995      O2000   1.371       .  S
C1996      C1997   1.406       .  A
C1997      C1998   1.406       .  A
C1997      H2001   1.083       .  S
C1998      O2002   1.370       .  S
O2000      H2004   0.992       .  S
O2002      H2003   0.992       .  S
C2005      C2006   1.407       .  A
C2005      C2010   1.415       .  A
C2006      C2007   1.403       .  A
C2006      H2011   1.082       .  S
C2007      C2008   1.414       .  A
C2007      O2012   1.371       .  S
C2008      C2009   1.408       .  A
C2009      C2010   1.407       .  A
C2009      H2013   1.083       .  S
C2010      O2014   1.371       .  S
O2012      H2016   0.991       .  S
O2014      H2015   0.992       .  S
C2017      C2018   1.409       .  A
C2017      C2022   1.417       .  A
C2018      C2019   1.404       .  A
C2018      H2023   1.081       .  S
C2019      C2020   1.409       .  A
C2019      O2024   1.373       .  S
C2020      C2021   1.403       .  A
C2021      C2022   1.403       .  A
C2021      H2025   1.084       .  S
C2022      O2026   1.370       .  S
O2024      H2028   0.992       .  S
O2026      H2027   0.992       .  S
C2029      C2030   1.408       .  A
C2029      C2034   1.416       .  A
C2030      C2031   1.402       .  A
C2030      H2035   1.081       .  S
C2031      C2032   1.412       .  A
C2031      O2036   1.371       .  S
C2032      C2033   1.407       .  A
C2033      C2034   1.407       .  A
C2033      H2037   1.083       .  S
C2034      O2038   1.370       .  S
O2036      H2040   0.992       .  S
O2038      H2039   0.991       .  S
C2041      C2042   1.406       .  A
C2041      C2046   1.413       .  A
C2042      C2043   1.408       .  A
C2042      H2047   1.083       .  S
C2043      C2044   1.416       .  A
C2043      O2048   1.370       .  S
C2044      C2045   1.410       .  A
C2045      C2046   1.408       .  A
C2045      H2049   1.081       .  S
C2046      O2050   1.373       .  S
O2048      H2052   0.992       .  S
O2050      H2051   0.992       .  S
C2053      C2054   1.409       .  A
C2053      C2058   1.418       .  A
C2054      C2055   1.403       .  A
C2054      H2059   1.081       .  S
C2055      C2056   1.412       .  A
C2055      O2060   1.372       .  S
C2056      C2057   1.404       .  A
C2057      C2058   1.404       .  A
C2057      H2061   1.083       .  S
C2058      O2062   1.369       .  S
O2060      H2064   0.991       .  S
O2062      H2063   0.990       .  S
C2065      C2066   1.406       .  A
C2065      C2070   1.413       .  A
C2066      C2067   1.405       .  A
C2066      H2071   1.083       .  S
C2067      C2068   1.412       .  A
C2067      O2072   1.371       .  S
C2068      C2069   1.407       .  A
C2069      C2070   1.406       .  A
C2069      H2073   1.083       .  S
C2070      O2074   1.372       .  S
O2072      H2076   0.993       .  S
O2074      H2075   0.992       .  S
C2077      C2078   1.406       .  A
C2077      C2082   1.412       .  A
C2078      C2079   1.405       .  A
C2078      H2083   1.083       .  S
C2079      C2080   1.413       .  A
C2079      O2084   1.371       .  S
C2080      C2081   1.407       .  A
C2081      C2082   1.404       .  A
C2081      H2085   1.083       .  S
C2082      O2086   1.372       .  S
O2084      H2088   0.992       .  S
O2086      H2087   0.992       .  S
C2089      C2090   1.406       .  A
C2089      C2094   1.411       .  A
C2090      C2091   1.404       .  A
C2090      H2095   1.083       .  S
C2091      C2092   1.413       .  A
C2091      O2096   1.371       .  S
C2092      C2093   1.408       .  A
C2093      C2094   1.404       .  A
C2093      H2097   1.083       .  S
C2094      O2098   1.372       .  S
O2096      H2100   0.994       .  S
O2098      H2099   0.993       .  S
C2101      C2102   1.405       .  A
C2101      C2106   1.411       .  A
C2102      C2103   1.401       .  A
C2102      H2107   1.084       .  S
C2103      C2104   1.412       .  A
C2103      O2108   1.372       .  S
C2104      C2105   1.408       .  A
C2105      C2106   1.405       .  A
C2105      H2109   1.083       .  S
C2106      O2110   1.371       .  S
O2108      H2112   0.992       .  S
O2110      H2111   0.992       .  S
C2113      C2114   1.406       .  A
C2113      C2118   1.411       .  A
C2114      C2115   1.404       .  A
C2114      H2119   1.083       .  S
C2115      C2116   1.414       .  A
C2115      O2120   1.371       .  S
C2116      C2117   1.407       .  A
C2117      C2118   1.402       .  A
C2117      H2121   1.082       .  S
C2118      O2122   1.373       .  S
O2120      H2124   0.992       .  S
O2122      H2123   0.992       .  S
C2125      C2126   1.405       .  A
C2125      C2130   1.413       .  A
C2126      C2127   1.402       .  A
C2126      H2131   1.084       .  S
C2127      C2128   1.412       .  A
C2127      O2132   1.372       .  S
C2128      C2129   1.406       .  A
C2129      C2130   1.405       .  A
C2129      H2133   1.083       .  S
C2130      O2134   1.372       .  S
O2132      H2136   0.990       .  S
O2134      H2135   0.991       .  S
C2137      C2138   1.405       .  A
C2137      C2142   1.410       .  A
C2138      C2139   1.403       .  A
C2138      H2143   1.084       .  S
C2139      C2140   1.411       .  A
C2139      O2144   1.371       .  S
C2140      C2141   1.405       .  A
C2141      C2142   1.404       .  A
C2141      H2145   1.083       .  S
C2142      O2146   1.371       .  S
O2144      H2148   0.993       .  S
O2146      H2147   0.993       .  S
C2149      C2150   1.409       .  A
C2149      C2154   1.418       .  A
C2150      C2151   1.404       .  A
C2150      H2155   1.081       .  S
C2151      C2152   1.410       .  A
C2151      O2156   1.372       .  S
C2152      C2153   1.405       .  A
C2153      C2154   1.407       .  A
C2153      H2157   1.083       .  S
C2154      O2158   1.370       .  S
O2156      H2160   0.992       .  S
O2158      H2159   0.992       .  S
C2161      C2162   1.408       .  A
C2161      C2166   1.412       .  A
C2162      C2163   1.405       .  A
C2162      H2167   1.083       .  S
C2163      C2164   1.414       .  A
C2163      O2168   1.370       .  S
C2164      C2165   1.409       .  A
C2165      C2166   1.405       .  A
C2165      H2169   1.082       .  S
C2166      O2170   1.371       .  S
O2168      H2172   0.990       .  S
O2170      H2171   0.991       .  S
C2173      C2174   1.411       .  A
C2173      C2178   1.417       .  A
C2174      C2175   1.404       .  A
C2174      H2179   1.081       .  S
C2175      C2176   1.411       .  A
C2175      O2180   1.372       .  S
C2176      C2177   1.405       .  A
C2177      C2178   1.405       .  A
C2177      H2181   1.083       .  S
C2178      O2182   1.369       .  S
O2180      H2184   0.991       .  S
O2182      H2183   0.990       .  S
C2185      C2186   1.408       .  A
C2185      C2190   1.415       .  A
C2186      C2187   1.408       .  A
C2186      H2191   1.082       .  S
C2187      C2188   1.414       .  A
C2187      O2192   1.373       .  S
C2188      C2189   1.406       .  A
C2189      C2190   1.405       .  A
C2189      H2193   1.083       .  S
C2190      O2194   1.370       .  S
O2192      H2196   0.993       .  S
O2194      H2195   0.993       .  S
C2197      C2198   1.407       .  A
C2197      C2202   1.414       .  A
C2198      C2199   1.407       .  A
C2198      H2203   1.083       .  S
C2199      C2200   1.416       .  A
C2199      O2204   1.370       .  S
C2200      C2201   1.408       .  A
C2201      C2202   1.404       .  A
C2201      H2205   1.082       .  S
C2202      O2206   1.371       .  S
O2204      H2208   0.992       .  S
O2206      H2207   0.992       .  S
C2209      C2210   1.408       .  A
C2209      C2214   1.414       .  A
C2210      C2211   1.405       .  A
C2210      H2215   1.082       .  S
C2211      C2212   1.412       .  A
C2211      O2216   1.373       .  S
C2212      C2213   1.405       .  A
C2213      C2214   1.403       .  A
C2213      H2217   1.083       .  S
C2214      O2218   1.371       .  S
O2216      H2220   0.992       .  S
O2218      H2219   0.992       .  S
C2221      C2222   1.408       .  A
C2221      C2226   1.413       .  A
C2222      C2223   1.405       .  A
C2222      H2227   1.082       .  S
C2223      C2224   1.414       .  A
C2223      O2228   1.371       .  S
C2224      C2225   1.408       .  A
C2225      C2226   1.405       .  A
C2225      H2229   1.083       .  S
C2226      O2230   1.370       .  S
O2228      H2232   0.992       .  S
O2230      H2231   0.991       .  S
C2233      C2234   1.405       .  A
C2233      C2238   1.411       .  A
C2234      C2235   1.406       .  A
C2234      H2239   1.083       .  S
C2235      C2236   1.418       .  A
C2235      O2240   1.369       .  S
C2236      C2237   1.411       .  A
C2237      C2238   1.406       .  A
C2237      H2241   1.081       .  S
C2238      O2242   1.372       .  S
O2240      H2244   0.989       .  S
O2242      H2243   0.990       .  S
C2245      C2246   1.407       .  A
C2245      C2250   1.414       .  A
C2246      C2247   1.407       .  A
C2246      H2251   1.083       .  S
C2247      C2248   1.414       .  A
C2247      O2252   1.371       .  S
C2248      C2249   1.406       .  A
C2249      C2250   1.405       .  A
C2249      H2253   1.083       .  S
C2250      O2254   1.371       .  S
O2252      H2256   0.992       .  S
O2254      H2255   0.991       .  S
C2257      C2258   1.402       .  A
C2257      C2262   1.407       .  A
C2258      C2259   1.408       .  A
C2258      H2263   1.084       .  S
C2259      C2260   1.420       .  A
C2259      O2264   1.369       .  S
C2260      C2261   1.412       .  A
C2261      C2262   1.406       .  A
C2261      H2265   1.081       .  S
C2262      O2266   1.371       .  S
O2264      H2268   0.991       .  S
O2266      H2267   0.992       .  S
C2269      C2270   1.407       .  A
C2269      C2274   1.412       .  A
C2270      C2271   1.406       .  A
C2270      H2275   1.083       .  S
C2271      C2272   1.412       .  A
C2271      O2276   1.371       .  S
C2272      C2273   1.407       .  A
C2273      C2274   1.405       .  A
C2273      H2277   1.083       .  S
C2274      O2278   1.371       .  S
O2276      H2280   0.992       .  S
O2278      H2279   0.992       .  S
C2281      C2282   1.408       .  A
C2281      C2286   1.414       .  A
C2282      C2283   1.406       .  A
C2282      H2287   1.083       .  S
C2283      C2284   1.413       .  A
C2283      O2288   1.371       .  S
C2284      C2285   1.408       .  A
C2285      C2286   1.407       .  A
C2285      H2289   1.083       .  S
C2286      O2290   1.371       .  S
O2288      H2292   0.992       .  S
O2290      H2291   0.993       .  S
C2293      C2294   1.408       .  A
C2293      C2298   1.413       .  A
C2294      C2295   1.409       .  A
C2294      H2299   1.083       .  S
C2295      C2296   1.415       .  A
C2295      O2300   1.371       .  S
C2296      C2297   1.409       .  A
C2297      C2298   1.405       .  A
C2297      H2301   1.082       .  S
C2298      O2302   1.371       .  S
O2300      H2304   0.992       .  S
O2302      H2303   0.991       .  S
C2305      C2306   1.407       .  A
C2305      C2310   1.413       .  A
C2306      C2307   1.406       .  A
C2306      H2311   1.083       .  S
C2307      C2308   1.412       .  A
C2307      O2312   1.371       .  S
C2308      C2309   1.408       .  A
C2309      C2310   1.407       .  A
C2309      H2313   1.083       .  S
C2310      O2314   1.371       .  S
O2312      H2316   0.993       .  S
O2314      H2315   0.993       .  S
C2317      C2318   1.407       .  A
C2317      C2322   1.415       .  A
C2318      C2319   1.406       .  A
C2318      H2323   1.083       .  S
C2319      C2320   1.414       .  A
C2319      O2324   1.371       .  S
C2320      C2321   1.408       .  A
C2321      C2322   1.406       .  A
C2321      H2325   1.083       .  S
C2322      O2326   1.371       .  S
O2324      H2328   0.993       .  S
O2326      H2327   0.993       .  S
C2329      C2330   1.407       .  A
C2329      C2334   1.415       .  A
C2330      C2331   1.405       .  A
C2330      H2335   1.083       .  S
C2331      C2332   1.412       .  A
C2331      O2336   1.371       .  S
C2332      C2333   1.408       .  A
C2333      C2334   1.410       .  A
C2333      H2337   1.083       .  S
C2334      O2338   1.371       .  S
O2336      H2340   0.992       .  S
O2338      H2339   0.992       .  S
C2341      C2342   1.411       .  A
C2341      C2346   1.418       .  A
C2342      C2343   1.405       .  A
C2342      H2347   1.081       .  S
C2343      C2344   1.410       .  A
C2343      O2348   1.371       .  S
C2344      C2345   1.405       .  A
C2345      C2346   1.408       .  A
C2345      H2349   1.083       .  S
C2346      O2350   1.370       .  S
O2348      H2352   0.992       .  S
O2350      H2351   0.992       .  S
C2353      C2354   1.406       .  A
C2353      C2358   1.410       .  A
C2354      C2355   1.406       .  A
C2354      H2359   1.083       .  S
C2355      C2356   1.417       .  A
C2355      O2360   1.370       .  S
C2356      C2357   1.408       .  A
C2357      C2358   1.405       .  A
C2357      H2361   1.081       .  S
C2358      O2362   1.372       .  S
O2360      H2364   0.993       .  S
O2362      H2363   0.993       .  S
C2365      C2366   1.410       .  A
C2365      C2370   1.415       .  A
C2366      C2367   1.404       .  A
C2366      H2371   1.082       .  S
C2367      C2368   1.411       .  A
C2367      O2372   1.372       .  S
C2368      C2369   1.404       .  A
C2369      C2370   1.402       .  A
C2369      H2373   1.083       .  S
C2370      O2374   1.370       .  S
O2372      H2376   0.992       .  S
O2374      H2375   0.991       .  S
C2377      C2378   1.406       .  A
C2377      C2382   1.414       .  A
C2378      C2379   1.403       .  A
C2378      H2383   1.082       .  S
C2379      C2380   1.414       .  A
C2379      O2384   1.371       .  S
C2380      C2381   1.408       .  A
C2381      C2382   1.406       .  A
C2381      H2385   1.083       .  S
C2382      O2386   1.371       .  S
O2384      H2388   0.992       .  S
O2386      H2387   0.992       .  S
C2389      C2390   1.409       .  A
C2389      C2394   1.414       .  A
C2390      C2391   1.405       .  A
C2390      H2395   1.082       .  S
C2391      C2392   1.413       .  A
C2391      O2396   1.371       .  S
C2392      C2393   1.408       .  A
C2393      C2394   1.405       .  A
C2393      H2397   1.083       .  S
C2394      O2398   1.370       .  S
O2396      H2400   0.992       .  S
O2398      H2399   0.991       .  S
C2401      C2402   1.404       .  A
C2401      C2406   1.410       .  A
C2402      C2403   1.406       .  A
C2402      H2407   1.084       .  S
C2403      C2404   1.419       .  A
C2403      O2408   1.369       .  S
C2404      C2405   1.412       .  A
C2405      C2406   1.407       .  A
C2405      H2409   1.081       .  S
C2406      O2410   1.372       .  S
O2408      H2412   0.995       .  S
O2410      H2411   0.993       .  S
C2413      C2414   1.406       .  A
C2413      C2418   1.410       .  A
C2414      C2415   1.404       .  A
C2414      H2419   1.083       .  S
C2415      C2416   1.409       .  A
C2415      O2420   1.371       .  S
C2416      C2417   1.406       .  A
C2417      C2418   1.404       .  A
C2417      H2421   1.084       .  S
C2418      O2422   1.371       .  S
O2420      H2424   0.992       .  S
O2422      H2423   0.992       .  S
C2425      C2426   1.410       .  A
C2425      C2430   1.417       .  A
C2426      C2427   1.403       .  A
C2426      H2431   1.081       .  S
C2427      C2428   1.411       .  A
C2427      O2432   1.372       .  S
C2428      C2429   1.404       .  A
C2429      C2430   1.406       .  A
C2429      H2433   1.084       .  S
C2430      O2434   1.370       .  S
O2432      H2436   0.992       .  S
O2434      H2435   0.992       .  S
C2437      C2438   1.406       .  A
C2437      C2442   1.412       .  A
C2438      C2439   1.405       .  A
C2438      H2443   1.084       .  S
C2439      C2440   1.414       .  A
C2439      O2444   1.371       .  S
C2440      C2441   1.407       .  A
C2441      C2442   1.407       .  A
C2441      H2445   1.083       .  S
C2442      O2446   1.371       .  S
O2444      H2448   0.992       .  S
O2446      H2447   0.992       .  S
C2449      C2450   1.405       .  A
C2449      C2454   1.410       .  A
C2450      C2451   1.405       .  A
C2450      H2455   1.083       .  S
C2451      C2452   1.417       .  A
C2451      O2456   1.369       .  S
C2452      C2453   1.411       .  A
C2453      C2454   1.405       .  A
C2453      H2457   1.081       .  S
C2454      O2458   1.372       .  S
O2456      H2460   0.992       .  S
O2458      H2459   0.991       .  S
C2461      C2462   1.406       .  A
C2461      C2466   1.413       .  A
C2462      C2463   1.403       .  A
C2462      H2467   1.083       .  S
C2463      C2464   1.412       .  A
C2463      O2468   1.371       .  S
C2464      C2465   1.408       .  A
C2465      C2466   1.406       .  A
C2465      H2469   1.083       .  S
C2466      O2470   1.372       .  S
O2468      H2472   0.992       .  S
O2470      H2471   0.992       .  S
C2473      C2474   1.401       .  A
C2473      C2478   1.406       .  A
C2474      C2475   1.404       .  A
C2474      H2479   1.084       .  S
C2475      C2476   1.419       .  A
C2475      O2480   1.369       .  S
C2476      C2477   1.411       .  A
C2477      C2478   1.403       .  A
C2477      H2481   1.080       .  S
C2478      O2482   1.372       .  S
O2480      H2484   0.991       .  S
O2482      H2483   0.992       .  S
C2485      C2486   1.407       .  A
C2485      C2490   1.411       .  A
C2486      C2487   1.403       .  A
C2486      H2491   1.083       .  S
C2487      C2488   1.411       .  A
C2487      O2492   1.371       .  S
C2488      C2489   1.407       .  A
C2489      C2490   1.404       .  A
C2489      H2493   1.083       .  S
C2490      O2494   1.371       .  S
O2492      H2496   0.992       .  S
O2494      H2495   0.992       .  S
C2497      C2498   1.406       .  A
C2497      C2502   1.411       .  A
C2498      C2499   1.402       .  A
C2498      H2503   1.083       .  S
C2499      C2500   1.411       .  A
C2499      O2504   1.371       .  S
C2500      C2501   1.407       .  A
C2501      C2502   1.404       .  A
C2501      H2505   1.083       .  S
C2502      O2506   1.372       .  S
O2504      H2508   0.992       .  S
O2506      H2507   0.992       .  S
C2509      C2510   1.406       .  A
C2509      C2514   1.413       .  A
C2510      C2511   1.402       .  A
C2510      H2515   1.083       .  S
C2511      C2512   1.411       .  A
C2511      O2516   1.372       .  S
C2512      C2513   1.405       .  A
C2513      C2514   1.403       .  A
C2513      H2517   1.083       .  S
C2514      O2518   1.371       .  S
O2516      H2520   0.992       .  S
O2518      H2519   0.992       .  S
C2521      C2522   1.407       .  A
C2521      C2526   1.416       .  A
C2522      C2523   1.405       .  A
C2522      H2527   1.082       .  S
C2523      C2524   1.412       .  A
C2523      O2528   1.373       .  S
C2524      C2525   1.404       .  A
C2525      C2526   1.405       .  A
C2525      H2529   1.083       .  S
C2526      O2530   1.370       .  S
O2528      H2532   0.992       .  S
O2530      H2531   0.992       .  S
C2533      C2534   1.410       .  A
C2533      C2538   1.416       .  A
C2534      C2535   1.408       .  A
C2534      H2539   1.081       .  S
C2535      C2536   1.411       .  A
C2535      O2540   1.372       .  S
C2536      C2537   1.406       .  A
C2537      C2538   1.404       .  A
C2537      H2541   1.083       .  S
C2538      O2542   1.370       .  S
O2540      H2544   0.993       .  S
O2542      H2543   0.993       .  S
C2545      C2546   1.407       .  A
C2545      C2550   1.413       .  A
C2546      C2547   1.405       .  A
C2546      H2551   1.083       .  S
C2547      C2548   1.413       .  A
C2547      O2552   1.371       .  S
C2548      C2549   1.409       .  A
C2549      C2550   1.408       .  A
C2549      H2553   1.082       .  S
C2550      O2554   1.373       .  S
O2552      H2556   0.992       .  S
O2554      H2555   0.992       .  S
C2557      C2558   1.412       .  A
C2557      C2562   1.416       .  A
C2558      C2559   1.409       .  A
C2558      H2563   1.082       .  S
C2559      C2560   1.413       .  A
C2559      O2564   1.371       .  S
C2560      C2561   1.407       .  A
C2561      C2562   1.405       .  A
C2561      H2565   1.083       .  S
C2562      O2566   1.369       .  S
O2564      H2568   0.990       .  S
O2566      H2567   0.990       .  S
C2569      C2570   1.407       .  A
C2569      C2574   1.412       .  A
C2570      C2571   1.405       .  A
C2570      H2575   1.083       .  S
C2571      C2572   1.415       .  A
C2571      O2576   1.371       .  S
C2572      C2573   1.408       .  A
C2573      C2574   1.404       .  A
C2573      H2577   1.082       .  S
C2574      O2578   1.371       .  S
O2576      H2580   0.991       .  S
O2578      H2579   0.992       .  S
C2581      C2582   1.411       .  A
C2581      C2586   1.419       .  A
C2582      C2583   1.404       .  A
C2582      H2587   1.081       .  S
C2583      C2584   1.407       .  A
C2583      O2588   1.372       .  S
C2584      C2585   1.400       .  A
C2585      C2586   1.401       .  A
C2585      H2589   1.084       .  S
C2586      O2590   1.369       .  S
O2588      H2592   0.992       .  S
O2590      H2591   0.992       .  S
C2593      C2594   1.404       .  A
C2593      C2598   1.413       .  A
C2594      C2595   1.403       .  A
C2594      H2599   1.083       .  S
C2595      C2596   1.415       .  A
C2595      O2600   1.370       .  S
C2596      C2597   1.412       .  A
C2597      C2598   1.409       .  A
C2597      H2601   1.082       .  S
C2598      O2602   1.372       .  S
O2600      H2604   0.992       .  S
O2602      H2603   0.991       .  S
C2605      C2606   1.407       .  A
C2605      C2610   1.413       .  A
C2606      C2607   1.405       .  A
C2606      H2611   1.083       .  S
C2607      C2608   1.413       .  A
C2607      O2612   1.371       .  S
C2608      C2609   1.406       .  A
C2609      C2610   1.404       .  A
C2609      H2613   1.083       .  S
C2610      O2614   1.371       .  S
O2612      H2616   0.993       .  S
O2614      H2615   0.993       .  S
C2617      C2618   1.408       .  A
C2617      C2622   1.415       .  A
C2618      C2619   1.403       .  A
C2618      H2623   1.083       .  S
C2619      C2620   1.415       .  A
C2619      O2624   1.370       .  S
C2620      C2621   1.408       .  A
C2621      C2622   1.403       .  A
C2621      H2625   1.082       .  S
C2622      O2626   1.371       .  S
O2624      H2628   0.991       .  S
O2626      H2627   0.992       .  S
C2629      C2630   1.407       .  A
C2629      C2634   1.412       .  A
C2630      C2631   1.405       .  A
C2630      H2635   1.083       .  S
C2631      C2632   1.413       .  A
C2631      O2636   1.371       .  S
C2632      C2633   1.407       .  A
C2633      C2634   1.403       .  A
C2633      H2637   1.083       .  S
C2634      O2638   1.371       .  S
O2636      H2640   0.994       .  S
O2638      H2639   0.993       .  S
C2641      C2642   1.406       .  A
C2641      C2646   1.411       .  A
C2642      C2643   1.404       .  A
C2642      H2647   1.083       .  S
C2643      C2644   1.416       .  A
C2643      O2648   1.369       .  S
C2644      C2645   1.410       .  A
C2645      C2646   1.404       .  A
C2645      H2649   1.081       .  S
C2646      O2650   1.372       .  S
O2648      H2652   0.991       .  S
O2650      H2651   0.991       .  S
C2653      C2654   1.407       .  A
C2653      C2658   1.414       .  A
C2654      C2655   1.404       .  A
C2654      H2659   1.083       .  S
C2655      C2656   1.412       .  A
C2655      O2660   1.371       .  S
C2656      C2657   1.407       .  A
C2657      C2658   1.405       .  A
C2657      H2661   1.083       .  S
C2658      O2662   1.372       .  S
O2660      H2664   0.992       .  S
O2662      H2663   0.992       .  S
C2665      C2666   1.401       .  A
C2665      C2670   1.406       .  A
C2666      C2667   1.407       .  A
C2666      H2671   1.084       .  S
C2667      C2668   1.420       .  A
C2667      O2672   1.370       .  S
C2668      C2669   1.411       .  A
C2669      C2670   1.404       .  A
C2669      H2673   1.081       .  S
C2670      O2674   1.371       .  S
O2672      H2676   0.991       .  S
O2674      H2675   0.991       .  S
C2677      C2678   1.406       .  A
C2677      C2682   1.411       .  A
C2678      C2679   1.406       .  A
C2678      H2683   1.083       .  S
C2679      C2680   1.412       .  A
C2679      O2684   1.371       .  S
C2680      C2681   1.407       .  A
C2681      C2682   1.405       .  A
C2681      H2685   1.083       .  S
C2682      O2686   1.371       .  S
O2684      H2688   0.992       .  S
O2686      H2687   0.992       .  S
C2689      C2690   1.405       .  A
C2689      C2694   1.412       .  A
C2690      C2691   1.405       .  A
C2690      H2695   1.083       .  S
C2691      C2692   1.417       .  A
C2691      O2696   1.370       .  S
C2692      C2693   1.409       .  A
C2693      C2694   1.408       .  A
C2693      H2697   1.082       .  S
C2694      O2698   1.372       .  S
O2696      H2700   0.991       .  S
O2698      H2699   0.992       .  S
C2701      C2702   1.405       .  A
C2701      C2706   1.412       .  A
C2702      C2703   1.405       .  A
C2702      H2707   1.083       .  S
C2703      C2704   1.412       .  A
C2703      O2708   1.371       .  S
C2704      C2705   1.407       .  A
C2705      C2706   1.407       .  A
C2705      H2709   1.083       .  S
C2706      O2710   1.372       .  S
O2708      H2712   0.993       .  S
O2710      H2711   0.992       .  S
C2713      C2714   1.407       .  A
C2713      C2718   1.412       .  A
C2714      C2715   1.406       .  A
C2714      H2719   1.084       .  S
C2715      C2716   1.413       .  A
C2715      O2720   1.372       .  S
C2716      C2717   1.407       .  A
C2717      C2718   1.405       .  A
C2717      H2721   1.083       .  S
C2718      O2722   1.371       .  S
O2720      H2724   0.993       .  S
O2722      H2723   0.993       .  S
C2725      C2726   1.404       .  A
C2725      C2730   1.411       .  A
C2726      C2727   1.404       .  A
C2726      H2731   1.083       .  S
C2727      C2728   1.417       .  A
C2727      O2732   1.370       .  S
C2728      C2729   1.410       .  A
C2729      C2730   1.405       .  A
C2729      H2733   1.082       .  S
C2730      O2734   1.371       .  S
O2732      H2736   0.992       .  S
O2734      H2735   0.992       .  S
