geometry optimzed in LAMMPS
_audit_creation_date              2020-11-30 
_audit_creation_method            'lammps2cif' 
_symmetry_space_group_name_H-M    'P1' 
_symmetry_Int_Tables_number       1 
_symmetry_cell_setting            triclinic 
loop_ 
_symmetry_equiv_pos_as_xyz 
  x,y,z 
_cell_length_a                    26.47431883 
_cell_length_b                    28.154367798486724 
_cell_length_c                    36.24881918097059 
_cell_angle_alpha                 89.53612491672294 
_cell_angle_beta                  90.68325167486564 
_cell_angle_gamma                 117.70874766245434 
loop_ 
_atom_site_label 
_atom_site_type_symbol 
_atom_site_fract_x 
_atom_site_fract_y 
_atom_site_fract_z 
_atom_site_charge 
Zn1        Zn  0.29694167  0.08736359  0.88574133     1.49700
Zn2        Zn  0.33854852  0.16251740  0.94733773     1.49400
Zn3        Zn  0.41074896  0.20580474  0.88386381     1.49100
Zn4        Zn  0.28624670  0.19839299  0.89022050     1.49500
O5          O  0.33213832  0.16324434  0.89632291    -1.82700
O6          O  0.28032385  0.04383240  0.93443032    -0.73300
O7          O  0.40622346  0.15570825  0.96130902    -0.73200
O8          O  0.43294611  0.15581667  0.85515140    -0.72700
O9          O  0.27210940  0.10364975  0.96906452    -0.73400
O10         O  0.35608483  0.07460700  0.85658699    -0.73000
O11         O  0.45708216  0.23185168  0.93250541    -0.73500
O12         O  0.32875555  0.26300187  0.85685559    -0.72900
O13         O  0.34489257  0.22747027  0.97084044    -0.73700
O14         O  0.41668134  0.27065109  0.85397453    -0.73100
O15         O  0.26972994  0.22134731  0.94024495    -0.73500
O16         O  0.21227449  0.14450127  0.86773814    -0.73400
O17         O  0.21985581  0.06922052  0.85939764    -0.73200
C18         C  0.26733564  0.05727742  0.96507248     0.78600
C19         C  0.44784289  0.20239625  0.96122122     0.79000
C20         C  0.40791497  0.10563593  0.84738224     0.78000
C21         C  0.38038200  0.28739299  0.84584986     0.78400
C22         C  0.30075761  0.23392197  0.96937380     0.79500
C23         C  0.19177889  0.09611320  0.85668796     0.78600
Zn24       Zn  0.32197558  0.16400762  0.62012253     1.49700
Zn25       Zn  0.41280513  0.19840247  0.67462320     1.49400
Zn26       Zn  0.29740269  0.20794688  0.68456710     1.49100
Zn27       Zn  0.29221277  0.08876887  0.68190332     1.49500
O28         O  0.33216650  0.16434295  0.67071937    -1.82700
O29         O  0.37968229  0.22932947  0.59566778    -0.73300
O30         O  0.43733040  0.26413270  0.70667161    -0.73200
O31         O  0.27515589  0.23471982  0.63694614    -0.72700
O32         O  0.44858592  0.21932984  0.62369142    -0.73400
O33         O  0.24629853  0.15689279  0.60997788    -0.73000
O34         O  0.35775267  0.27247842  0.71278441    -0.73500
O35         O  0.22163789  0.07712482  0.71171457    -0.72900
O36         O  0.43401930  0.14508821  0.69736923    -0.73700
O37         O  0.22675087  0.15892623  0.71461245    -0.73100
O38         O  0.35167056  0.07107292  0.70814563    -0.73500
O39         O  0.26471031  0.04366799  0.63391772    -0.73400
O40         O  0.32755562  0.10467543  0.59701609    -0.73200
C41         C  0.42952851  0.23385332  0.59565254     0.78600
C42         C  0.41110864  0.28903275  0.71878983     0.79000
C43         C  0.25203317  0.20396342  0.60938996     0.78000
C44         C  0.20153287  0.10852086  0.72184673     0.78400
C45         C  0.40645326  0.09733939  0.70971313     0.79500
C46         C  0.28954482  0.05718771  0.60275339     0.78600
C47         C  0.98982569  0.98727478  0.74717664     0.46900
H48         H  0.98588850  0.98836970  0.71666950    -0.02100
C49         C  0.99870208  0.98452284  0.81883410     0.46900
H50         H  0.00252802  0.98321049  0.84933901    -0.02100
C51         C  0.05224399  0.01516611  0.76160766    -0.15800
C52         C  0.45876335  0.01371771  0.76743325    -0.15600
C53         C  0.46345619  0.42769890  0.76342001    -0.16000
C54         C  0.05653821  0.01306390  0.79927096    -0.16000
C55         C  0.46375477  0.01291668  0.80509823    -0.15500
C56         C  0.46881294  0.42687671  0.80121679    -0.15800
Zn57       Zn  0.17273492  0.33662876  0.34368088     1.49700
Zn58       Zn  0.13088244  0.37365713  0.41492939     1.49400
Zn59       Zn  0.13541003  0.26349047  0.41420026     1.49100
Zn60       Zn  0.24963882  0.37321127  0.41672354     1.49500
O61         O  0.17224466  0.33686119  0.39684916    -1.82700
O62         O  0.14625389  0.38894530  0.32427151    -0.73300
O63         O  0.05906543  0.32509248  0.44137074    -0.73200
O64         O  0.10129513  0.20928813  0.37350325    -0.72700
O65         O  0.11540983  0.41392714  0.37379878    -0.73400
O66         O  0.12095282  0.26167158  0.32381705    -0.73000
O67         O  0.07605446  0.25576623  0.45016428    -0.73500
O68         O  0.25832163  0.32714404  0.45631055    -0.72900
O69         O  0.17588512  0.42229074  0.45631170    -0.73700
O70         O  0.18590195  0.24637636  0.44629390    -0.73100
O71         O  0.26469827  0.43762065  0.44676315    -0.73500
O72         O  0.30780711  0.39408577  0.37629615    -0.73400
O73         O  0.25336404  0.36229647  0.32588395    -0.73200
C74         C  0.12435039  0.41585723  0.33917925     0.78600
C75         C  0.05011656  0.28239554  0.45855556     0.79000
C76         C  0.09772970  0.21532972  0.33889465     0.78000
C77         C  0.22882624  0.27813431  0.46533162     0.78400
C78         C  0.22832659  0.44440686  0.46550839     0.79500
C79         C  0.30217055  0.38633971  0.34153594     0.78600
Zn80       Zn  0.16555992  0.33574682  0.12008727     1.49700
Zn81       Zn  0.08754065  0.29017852  0.18060768     1.49400
Zn82       Zn  0.22100042  0.31340719  0.18168517     1.49100
Zn83       Zn  0.19114714  0.41263441  0.17685442     1.49500
O84         O  0.16634464  0.33810535  0.17073089    -1.82700
O85         O  0.09728108  0.33610935  0.10019194    -0.73300
O86         O  0.08738976  0.22642078  0.20849820    -0.73200
O87         O  0.24984761  0.29713524  0.13303155    -0.72700
O88         O  0.04327269  0.26272883  0.13099112    -0.73400
O89         O  0.16788195  0.27122427  0.10395150    -0.73000
O90         O  0.17917252  0.24406761  0.21143697    -0.73500
O91         O  0.26329957  0.44178874  0.20785745    -0.72900
O92         O  0.05775764  0.33464071  0.21017659    -0.73700
O93         O  0.28589437  0.37429819  0.20979054    -0.73100
O94         O  0.12859034  0.41840585  0.20364274    -0.73500
O95         O  0.20555414  0.45147803  0.12661162    -0.73400
O96         O  0.22975368  0.39688096  0.09767162    -0.73200
C97         C  0.05418084  0.29052685  0.10134212     0.78600
C98         C  0.12634403  0.21379083  0.21830031     0.79000
C99         C  0.21798311  0.27653287  0.10474165     0.78000
C100        C  0.29624028  0.42224995  0.21791458     0.77400
C101        C  0.07930043  0.38540681  0.21556483     0.79500
C102        C  0.22479790  0.43939257  0.09798292     0.78600
C103        C  0.00621865  0.01580956  0.24343366     0.46900
H104        H  0.00396102  0.01589245  0.21280711    -0.02100
C105        C  0.01066143  0.01566678  0.31512373     0.46900
H106        H  0.01230765  0.01555036  0.34578831    -0.02100
C107        C  0.44564807  0.48189682  0.26190337    -0.15800
C108        C  0.03893826  0.48576707  0.26135874    -0.15600
C109        C  0.03738967  0.07252990  0.26014944    -0.16000
C110        C  0.44732805  0.48265322  0.29992955    -0.16000
C111        C  0.04116196  0.48691172  0.29939938    -0.15500
C112        C  0.03926148  0.07248989  0.29823138    -0.15800
C113        C  0.11027278  0.16291327  0.23866550    -0.15000
C114        C  0.05749054  0.12106105  0.23618034    -0.30200
H115        H  0.14183967  0.16011228  0.25664038     0.14000
H116        H  0.02741503  0.12209903  0.21602677     0.14600
C117        C  0.39468112  0.45025994  0.23867547    -0.15000
C118        C  0.34748806  0.45640889  0.23994420    -0.30200
H119        H  0.39711542  0.42227222  0.21921456     0.14000
H120        H  0.34691015  0.48765726  0.25706147     0.14600
C121        C  0.06423409  0.46051689  0.23715320    -0.15000
C122        C  0.04750732  0.40734406  0.23694989    -0.30200
H123        H  0.09761634  0.48716149  0.21870306     0.14000
H124        H  0.01181029  0.38035899  0.25380488     0.14600
C125        C  0.35301009  0.40752022  0.31812400    -0.15000
C126        C  0.39807278  0.45536157  0.32513204    -0.30200
H127        H  0.35099528  0.38553492  0.29328778     0.14000
H128        H  0.39971277  0.47568508  0.35081583     0.14600
C129        C  0.06626362  0.16778900  0.31537649    -0.15000
C130        C  0.06532168  0.12042222  0.32285582    -0.30200
H131        H  0.04566328  0.17293724  0.29083079     0.14000
H132        H  0.08398167  0.11583349  0.34860093     0.14600
C133        C  0.10820758  0.44914766  0.31514704    -0.15000
C134        C  0.06573986  0.46025844  0.32415904    -0.30200
H135        H  0.12990909  0.46206106  0.28910738     0.14000
H136        H  0.04658987  0.44836710  0.35117997     0.14600
C137        C  0.31366539  0.02663560  0.54493119    -0.11900
C138        C  0.27237714  0.02059799  0.57108513     0.10200
C139        C  0.21449076  0.98848434  0.56260100    -0.11900
C140        C  0.20636603  0.46441546  0.52855208    -0.11900
C141        C  0.24646841  0.47414661  0.50055949     0.10200
C142        C  0.30449825  0.50726475  0.50813244    -0.11900
H143        H  0.35859939  0.05195452  0.55071722     0.14200
H144        H  0.18191058  0.98440480  0.58200343     0.14200
H145        H  0.16144852  0.43787337  0.52380373     0.14200
H146        H  0.33643760  0.51463517  0.48737430     0.14200
C147        C  0.49823423  0.22748136  0.55298272    -0.11900
C148        C  0.46223761  0.24980432  0.56129948     0.10200
C149        C  0.45205828  0.28084259  0.53453311    -0.11900
C150        C  0.97917718  0.28984217  0.50026376    -0.11900
C151        C  0.01475901  0.26685935  0.49193561     0.10200
C152        C  0.02353320  0.23482811  0.51859102    -0.11900
H153        H  0.50565133  0.20237497  0.57278051     0.14200
H154        H  0.42361287  0.29773039  0.54021615     0.14200
H155        H  0.97242500  0.31534854  0.48046557     0.14200
H156        H  0.05159711  0.21737669  0.51333775     0.14200
C157        C  0.20794830  0.20460715  0.51065044    -0.11900
C158        C  0.23924343  0.25904772  0.50122681     0.10200
C159        C  0.27185787  0.29601980  0.52871301    -0.11900
C160        C  0.27293898  0.27875399  0.56486404    -0.11900
C161        C  0.24172519  0.22424311  0.57407477     0.10200
C162        C  0.20920226  0.18743174  0.54659876    -0.11900
H163        H  0.18158899  0.17522377  0.49032825     0.14200
H164        H  0.29538384  0.33845246  0.52251869     0.14200
H165        H  0.29960378  0.30776493  0.58529187     0.14200
H166        H  0.18547614  0.14498243  0.55277422     0.14200
C167        C  0.42015130  0.03129436  0.74861123    -0.15000
C168        C  0.44095681  0.07312187  0.72548370    -0.30200
H169        H  0.37593463  0.01380125  0.75718018     0.14000
H170        H  0.48641547  0.09285989  0.71977388     0.14600
C171        C  0.14812559  0.08668785  0.74343432    -0.15000
C172        C  0.10308645  0.03817380  0.73694347    -0.30200
H173        H  0.14512351  0.11201422  0.76480159     0.14000
H174        H  0.10322243  0.01492022  0.71326485     0.14600
C175        C  0.44406038  0.33804457  0.74074235    -0.15000
C176        C  0.43188789  0.37934437  0.74019199    -0.30200
H177        H  0.48027158  0.34108322  0.75677713     0.14000
H178        H  0.39934375  0.37875597  0.72150313     0.14600
C179        C  0.01717523  0.27832168  0.99970231    -0.11900
C180        C  0.47817540  0.22426891  0.99645580     0.10200
C181        C  0.46145195  0.19241034  0.02866200    -0.11900
C182        C  0.48386763  0.21438018  0.06316366    -0.11900
C183        C  0.02282795  0.26855264  0.06640558     0.10200
C184        C  0.03951241  0.30032644  0.03415140    -0.11900
H185        H  0.03029532  0.30402594  0.97557857     0.14200
H186        H  0.43027890  0.15038180  0.02732875     0.14200
H187        H  0.47116600  0.18861414  0.08725887     0.14200
H188        H  0.07086305  0.34230746  0.03536251     0.14200
C189        C  0.26740688  0.98083437  0.00042739    -0.11900
C190        C  0.25265356  0.02250449  0.99796836     0.10200
C191        C  0.23216004  0.03666383  0.02953127    -0.11900
C192        C  0.22705687  0.51618304  0.06161673    -0.11900
C193        C  0.23624692  0.47110922  0.06361812     0.10200
C194        C  0.25096359  0.45303296  0.03128511    -0.11900
H195        H  0.28435385  0.96982684  0.97680643     0.14200
H196        H  0.22081116  0.06897958  0.02853920     0.14200
H197        H  0.21459793  0.53041715  0.08580633     0.14200
H198        H  0.25728050  0.41770781  0.03174184     0.14200
C199        C  0.20709813  0.25387962  0.03806993    -0.11900
C200        C  0.23977749  0.26439739  0.07076876     0.10200
C201        C  0.29452893  0.26846885  0.06931506    -0.11900
C202        C  0.31562869  0.26110949  0.03582651    -0.11900
C203        C  0.28253680  0.25011488  0.00322441     0.10200
C204        C  0.22830984  0.24708276  0.00470040    -0.11900
H205        H  0.16501953  0.25141433  0.03804569     0.14200
H206        H  0.32087006  0.27726946  0.09390930     0.14200
H207        H  0.35745683  0.26301171  0.03563333     0.14200
H208        H  0.20154474  0.23799676  0.98027614     0.14200
C209        C  0.44005125  0.08409370  0.82582296    -0.15000
C210        C  0.43503333  0.03440986  0.83047030    -0.30200
H211        H  0.47000028  0.11070767  0.80559465     0.14000
H212        H  0.40963802  0.00911652  0.85289156     0.14600
C213        C  0.13328551  0.07204992  0.84099991    -0.15000
C214        C  0.11174221  0.02931514  0.81882878    -0.30200
H215        H  0.10821343  0.09303341  0.84569193     0.14000
H216        H  0.13771263  0.01032923  0.81120267     0.14600
C217        C  0.39767732  0.33615785  0.82283283    -0.15000
C218        C  0.45072738  0.37758375  0.82422913    -0.30200
H219        H  0.36547181  0.33923160  0.80571848     0.14000
H220        H  0.48125603  0.37686034  0.84410623     0.14600
Zn221      Zn  0.29943182  0.58855184  0.88344997     1.49700
Zn222      Zn  0.33908273  0.66644165  0.94430845     1.49400
Zn223      Zn  0.41388759  0.70761534  0.88211698     1.49100
Zn224      Zn  0.28819477  0.69855713  0.88502345     1.49500
O225        O  0.33468515  0.66444032  0.89329879    -1.82700
O226        O  0.28004848  0.54645210  0.93285236    -0.73300
O227        O  0.40638426  0.66145025  0.96155033    -0.73200
O228        O  0.43670006  0.65722057  0.85408800    -0.72700
O229        O  0.27270341  0.60780166  0.96648118    -0.73400
O230        O  0.35994727  0.57580780  0.85575996    -0.73000
O231        O  0.45964757  0.73548805  0.93127470    -0.73500
O232        O  0.33129994  0.76347747  0.85338805    -0.72900
O233        O  0.34315428  0.73270316  0.96395060    -0.73700
O234        O  0.41964373  0.77195127  0.85167296    -0.73100
O235        O  0.26511962  0.71833850  0.93348392    -0.73500
O236        O  0.21766352  0.64642125  0.85986648    -0.73400
O237        O  0.22353370  0.56989897  0.85511841    -0.73200
C238        C  0.26672080  0.56086256  0.96304135     0.78600
C239        C  0.44901197  0.70746515  0.96081132     0.79000
C240        C  0.41185739  0.60687907  0.84662740     0.78000
C241        C  0.38311064  0.78825620  0.84312929     0.78400
C242        C  0.29586832  0.73357408  0.96257587     0.79500
C243        C  0.19692073  0.59772226  0.84985051     0.78600
Zn244      Zn  0.32752689  0.66477026  0.61923296     1.49700
Zn245      Zn  0.41547290  0.70008090  0.67517174     1.49400
Zn246      Zn  0.29806224  0.70759833  0.68240022     1.49100
Zn247      Zn  0.29602023  0.58929602  0.68127494     1.49500
O248        O  0.33476064  0.66500233  0.67009870    -1.82700
O249        O  0.38518485  0.73122029  0.59627374    -0.73300
O250        O  0.43762805  0.76601683  0.70635960    -0.73200
O251        O  0.27607834  0.73286917  0.63366892    -0.72700
O252        O  0.45344840  0.72087607  0.62472048    -0.73400
O253        O  0.25214676  0.65628567  0.60593539    -0.73000
O254        O  0.35738809  0.77362517  0.71094888    -0.73500
O255        O  0.22318544  0.57573209  0.70972457    -0.72900
O256        O  0.43719280  0.64820863  0.69983005    -0.73700
O257        O  0.22646010  0.65687054  0.71169905    -0.73100
O258        O  0.35550888  0.57288576  0.70899595    -0.73500
O259        O  0.27218799  0.54507855  0.63289301    -0.73400
O260        O  0.33694667  0.60660428  0.59722350    -0.73200
C261        C  0.43497630  0.73569638  0.59654470     0.78600
C262        C  0.41075292  0.79072891  0.71765592     0.79000
C263        C  0.25533956  0.70245543  0.60560886     0.78000
C264        C  0.20174983  0.60642999  0.71911378     0.78400
C265        C  0.41008589  0.60028561  0.71196070     0.79500
C266        C  0.29851879  0.55906099  0.60222159     0.78600
C267        C  0.99076340  0.48432138  0.74650004     0.46900
H268        H  0.98667371  0.48471552  0.71597304    -0.02100
C269        C  0.99965239  0.48282290  0.81818570     0.46900
H270        H  0.00363742  0.48220249  0.84871349    -0.02100
C271        C  0.05331520  0.51141645  0.76068720    -0.15800
C272        C  0.46142890  0.51303680  0.76685110    -0.15600
C273        C  0.46346012  0.92984120  0.76275234    -0.16000
C274        C  0.05743460  0.50956820  0.79836579    -0.16000
C275        C  0.46647710  0.51288269  0.80456528    -0.15500
C276        C  0.46912605  0.92851040  0.80054689    -0.15800
Zn277      Zn  0.17222575  0.83684506  0.34219222     1.49700
Zn278      Zn  0.12832308  0.87185338  0.41355424     1.49400
Zn279      Zn  0.13584590  0.76351375  0.41276155     1.49100
Zn280      Zn  0.24874146  0.87435463  0.41541782     1.49500
O281        O  0.17162600  0.83685902  0.39538263    -1.82700
O282        O  0.14516069  0.88891364  0.32318415    -0.73300
O283        O  0.05633521  0.82161259  0.43902710    -0.73200
O284        O  0.09900888  0.70937987  0.37237405    -0.72700
O285        O  0.11294528  0.91250504  0.37271484    -0.73400
O286        O  0.12021584  0.76130668  0.32234816    -0.73000
O287        O  0.07907149  0.75644409  0.45045390    -0.73500
O288        O  0.25934731  0.82719108  0.45339615    -0.72900
O289        O  0.17098215  0.92003080  0.45580059    -0.73700
O290        O  0.18780664  0.74598214  0.44304167    -0.73100
O291        O  0.26018656  0.93532758  0.44815309    -0.73500
O292        O  0.30735905  0.90037688  0.37470513    -0.73400
O293        O  0.25358303  0.86538293  0.32439746    -0.73200
C294        C  0.12279197  0.91533665  0.33818556     0.78600
C295        C  0.05120975  0.78153297  0.45807534     0.79000
C296        C  0.09564941  0.71511689  0.33770446     0.78000
C297        C  0.23067765  0.77790527  0.46205133     0.78400
C298        C  0.22292639  0.94182107  0.46612518     0.79500
C299        C  0.30215432  0.89244453  0.33993419     0.78600
Zn300      Zn  0.16505521  0.83374289  0.11800783     1.49700
Zn301      Zn  0.08904188  0.78997261  0.17962376     1.49400
Zn302      Zn  0.21579174  0.80028685  0.17613051     1.49100
Zn303      Zn  0.20154572  0.90907452  0.17873286     1.49500
O304        O  0.16808423  0.83339999  0.16910654    -1.82700
O305        O  0.09910030  0.84124865  0.10069231    -0.73300
O306        O  0.08362384  0.72357333  0.20751020    -0.73200
O307        O  0.23606430  0.77903531  0.12719108    -0.72700
O308        O  0.04456574  0.76640728  0.12994816    -0.73400
O309        O  0.15948532  0.76808044  0.09633578    -0.73000
O310        O  0.17313482  0.73450778  0.20779629    -0.73500
O311        O  0.28109236  0.93086049  0.20323310    -0.72900
O312        O  0.06488933  0.83843933  0.20908509    -0.73700
O313        O  0.28919842  0.85541915  0.19795652    -0.73100
O314        O  0.14113943  0.92015289  0.20807590    -0.73500
O315        O  0.21464416  0.94941394  0.12909183    -0.73400
O316        O  0.23327876  0.89286093  0.09791832    -0.73200
C317        C  0.05573896  0.79568130  0.10096564     0.78600
C318        C  0.12056625  0.70780017  0.21634842     0.79000
C319        C  0.20553996  0.76496905  0.09797030     0.78000
C320        C  0.30995584  0.90477145  0.20664234     0.77400
C321        C  0.08920019  0.88863046  0.21699662     0.79500
C322        C  0.23150972  0.93680153  0.09960678     0.78600
C323        C  0.00465023  0.51226997  0.24463435     0.46900
H324        H  0.00319775  0.51146369  0.21396387    -0.02100
C325        C  0.00802689  0.51398785  0.31624165     0.46900
H326        H  0.00926149  0.51451546  0.34691547    -0.02100
C327        C  0.44665986  0.98976768  0.26185955    -0.15800
C328        C  0.03769363  0.98526232  0.25932853    -0.15600
C329        C  0.03092622  0.56928491  0.26084089    -0.16000
C330        C  0.44941981  0.98833815  0.29964843    -0.16000
C331        C  0.03970082  0.98550096  0.29743738    -0.15500
C332        C  0.03297103  0.57035935  0.29887587    -0.15800
C333        C  0.10310027  0.65757823  0.23753198    -0.15000
C334        C  0.04967425  0.61699447  0.23641790    -0.30200
H335        H  0.13496772  0.65389123  0.25479071     0.14000
H336        H  0.01870767  0.61831401  0.21707010     0.14600
C337        C  0.39218140  0.97437590  0.24150499    -0.15000
C338        C  0.36979374  0.93071754  0.22019144    -0.30200
H339        H  0.36614586  0.99316963  0.24924898     0.14000
H340        H  0.39466328  0.90956727  0.21568764     0.14600
C341        C  0.06545144  0.96151487  0.23494823    -0.15000
C342        C  0.05584952  0.91005711  0.23772881    -0.30200
H343        H  0.09499152  0.98760541  0.21440533     0.14000
H344        H  0.02279476  0.88290323  0.25611235     0.14600
C345        C  0.35302775  0.91599909  0.31634285    -0.15000
C346        C  0.39951265  0.96242270  0.32468389    -0.30200
H347        H  0.35066349  0.89584979  0.29058645     0.14000
H348        H  0.40236202  0.98109435  0.35124737     0.14600
C349        C  0.06278285  0.66727328  0.31457333    -0.15000
C350        C  0.05912026  0.61902319  0.32300719    -0.30200
H351        H  0.04321182  0.67290277  0.28964329     0.14000
H352        H  0.07690929  0.61445281  0.34918451     0.14600
C353        C  0.10751978  0.94947220  0.31448399    -0.15000
C354        C  0.06214691  0.95682715  0.32188634    -0.30200
H355        H  0.13231412  0.96625988  0.28979357     0.14000
H356        H  0.03966828  0.94121721  0.34762574     0.14600
C357        C  0.32183613  0.53190825  0.54245771    -0.11900
C358        C  0.28163531  0.52319175  0.57012543     0.10200
C359        C  0.22387640  0.48844246  0.56315680    -0.11900
C360        C  0.19821171  0.96422672  0.52790907    -0.11900
C361        C  0.23964310  0.97132066  0.50139083     0.10200
C362        C  0.29754836  0.00195066  0.51058898    -0.11900
H363        H  0.36662807  0.55913887  0.54706758     0.14200
H364        H  0.19200812  0.48203791  0.58376334     0.14200
H365        H  0.15322113  0.93974378  0.52190755     0.14200
H366        H  0.33046784  0.00738321  0.49106458     0.14200
C367        C  0.50509527  0.73055001  0.55435629    -0.11900
C368        C  0.46786691  0.75166959  0.56226289     0.10200
C369        C  0.45588033  0.78079591  0.53491979    -0.11900
C370        C  0.98098930  0.78909315  0.50025647    -0.11900
C371        C  0.01808989  0.76765824  0.49237930     0.10200
C372        C  0.03011205  0.73884317  0.51994994    -0.11900
H373        H  0.51399768  0.70695946  0.57463475     0.14200
H374        H  0.42655336  0.79680984  0.54028394     0.14200
H375        H  0.97183913  0.81226997  0.47977313     0.14200
H376        H  0.05956611  0.72283152  0.51504021     0.14200
C377        C  0.21412143  0.70370295  0.50603248    -0.11900
C378        C  0.24165231  0.75872280  0.49776738     0.10200
C379        C  0.27023683  0.79552892  0.52626875    -0.11900
C380        C  0.27135650  0.77754028  0.56221599    -0.11900
C381        C  0.24432472  0.72244757  0.57026287     0.10200
C382        C  0.21555242  0.68578803  0.54178691    -0.11900
H383        H  0.19066638  0.67439059  0.48490684     0.14200
H384        H  0.29041607  0.83830158  0.52101914     0.14200
H385        H  0.29488962  0.80665112  0.58343243     0.14200
H386        H  0.19494172  0.64298692  0.54702959     0.14200
C387        C  0.42327829  0.53077574  0.74754678    -0.15000
C388        C  0.44500288  0.57739881  0.72919870    -0.30200
H389        H  0.37751318  0.50757686  0.75122587     0.14000
H390        H  0.49114934  0.60106215  0.72777139     0.14600
C391        C  0.14756402  0.58403544  0.74025755    -0.15000
C392        C  0.10438534  0.53369654  0.73599216    -0.30200
H393        H  0.14235472  0.61069472  0.75955388     0.14000
H394        H  0.10627523  0.50829298  0.71425470     0.14600
C395        C  0.44322615  0.83979807  0.73979882    -0.15000
C396        C  0.43217156  0.88179516  0.73891294    -0.30200
H397        H  0.47868415  0.84223279  0.75644866     0.14000
H398        H  0.40064876  0.88195590  0.71959787     0.14600
C399        C  0.02116025  0.78314171  0.99870702    -0.11900
C400        C  0.47947821  0.72989292  0.99601970     0.10200
C401        C  0.46117948  0.69890162  0.02853677    -0.11900
C402        C  0.48363303  0.72106734  0.06293464    -0.11900
C403        C  0.02493758  0.77447631  0.06571829     0.10200
C404        C  0.04362196  0.80543884  0.03318073    -0.11900
H405        H  0.03574093  0.80813800  0.97430175     0.14200
H406        H  0.42867724  0.65732314  0.02754738     0.14200
H407        H  0.46941357  0.69577316  0.08722211     0.14200
H408        H  0.07658471  0.84683131  0.03422465     0.14200
C409        C  0.25764472  0.48025731  0.99785840    -0.11900
C410        C  0.24985441  0.52612859  0.99609400     0.10200
C411        C  0.23378677  0.54340696  0.02824191    -0.11900
C412        C  0.22738485  0.01031347  0.06302882    -0.11900
C413        C  0.24286412  0.96915712  0.06566258     0.10200
C414        C  0.26258982  0.95441215  0.03397354    -0.11900
H415        H  0.27065946  0.46638455  0.97373463     0.14200
H416        H  0.22768984  0.57885799  0.02786445     0.14200
H417        H  0.21087149  0.02169611  0.08669147     0.14200
H418        H  0.27414254  0.92223547  0.03503078     0.14200
C419        C  0.19422519  0.74067560  0.03140050    -0.11900
C420        C  0.22679074  0.75216027  0.06415802     0.10200
C421        C  0.28295448  0.75978014  0.06281089    -0.11900
C422        C  0.30636770  0.75649077  0.02931621    -0.11900
C423        C  0.27391072  0.74523243  0.99652863     0.10200
C424        C  0.21762313  0.73729863  0.99789197    -0.11900
H425        H  0.15103440  0.73533225  0.03149730     0.14200
H426        H  0.30935450  0.76958217  0.08746721     0.14200
H427        H  0.34960215  0.76195397  0.02924713     0.14200
H428        H  0.19129139  0.72757979  0.97320793     0.14200
C429        C  0.44421293  0.58510019  0.82542358    -0.15000
C430        C  0.43790653  0.53490493  0.82966053    -0.30200
H431        H  0.47520851  0.61186755  0.80570916     0.14000
H432        H  0.41130759  0.50934910  0.85162288     0.14600
C433        C  0.13989422  0.57504732  0.83236165    -0.15000
C434        C  0.11230317  0.52587440  0.81810778    -0.30200
H435        H  0.11984236  0.60107394  0.83033778     0.14000
H436        H  0.13133366  0.49904470  0.81848951     0.14600
C437        C  0.40003630  0.83703068  0.82059426    -0.15000
C438        C  0.45224350  0.87914016  0.82297518    -0.30200
H439        H  0.36779994  0.83969217  0.80320678     0.14000
H440        H  0.48259207  0.87888278  0.84323400     0.14600
Zn441      Zn  0.79663243  0.08715548  0.88560753     1.49700
Zn442      Zn  0.83823558  0.16229256  0.94717116     1.49400
Zn443      Zn  0.91044839  0.20565392  0.88392759     1.49100
Zn444      Zn  0.78583991  0.19806329  0.89009736     1.49500
O445        O  0.83181084  0.16299770  0.89616753    -1.82700
O446        O  0.78007043  0.04376388  0.93434782    -0.73300
O447        O  0.90579036  0.15537440  0.96135497    -0.73200
O448        O  0.93279216  0.15574879  0.85528458    -0.72700
O449        O  0.77161994  0.10357982  0.96884171    -0.73400
O450        O  0.85592310  0.07451811  0.85655752    -0.73000
O451        O  0.95657234  0.23163508  0.93267498    -0.73500
O452        O  0.82837025  0.26272185  0.85675880    -0.72900
O453        O  0.84484775  0.22739358  0.97052275    -0.73700
O454        O  0.91635231  0.27046316  0.85401876    -0.73100
O455        O  0.76931466  0.22082649  0.94018771    -0.73500
O456        O  0.71184492  0.14414523  0.86761134    -0.73400
O457        O  0.71954808  0.06894047  0.85920820    -0.73200
C458        C  0.76704970  0.05726592  0.96495817     0.78600
C459        C  0.94732043  0.20211750  0.96136210     0.79000
C460        C  0.90780245  0.10558481  0.84746952     0.78000
C461        C  0.88003246  0.28715071  0.84581387     0.78400
C462        C  0.80051403  0.23351330  0.96924126     0.79500
C463        C  0.69140675  0.09577599  0.85652749     0.78600
Zn464      Zn  0.82204501  0.16405679  0.62001075     1.49700
Zn465      Zn  0.91284847  0.19803091  0.67461252     1.49400
Zn466      Zn  0.79751171  0.20776192  0.68443481     1.49100
Zn467      Zn  0.79224007  0.08850776  0.68172999     1.49500
O468        O  0.83220885  0.16408075  0.67059784    -1.82700
O469        O  0.88005786  0.22937392  0.59574722    -0.73300
O470        O  0.93738463  0.26373347  0.70668470    -0.73200
O471        O  0.77553673  0.23499395  0.63689036    -0.72700
O472        O  0.94865307  0.21882043  0.62372704    -0.73400
O473        O  0.74648671  0.15722311  0.60983950    -0.73000
O474        O  0.85778145  0.27204182  0.71280481    -0.73500
O475        O  0.72157706  0.07687508  0.71147122    -0.72900
O476        O  0.93406468  0.14470455  0.69731295    -0.73700
O477        O  0.72670478  0.15869008  0.71432335    -0.73100
O478        O  0.85167981  0.07069732  0.70798977    -0.73500
O479        O  0.76474931  0.04356555  0.63367865    -0.73400
O480        O  0.82724089  0.10471631  0.59666827    -0.73200
C481        C  0.92974068  0.23349735  0.59569880     0.78600
C482        C  0.91112401  0.28858139  0.71882888     0.79000
C483        C  0.75225971  0.20430063  0.60933388     0.78000
C484        C  0.70144437  0.10828011  0.72154208     0.78400
C485        C  0.90646755  0.09693025  0.70959678     0.79500
C486        C  0.78934484  0.05718997  0.60244268     0.78600
C487        C  0.48956643  0.98719072  0.74682081     0.46900
H488        H  0.48557351  0.98828608  0.71631739    -0.02100
C489        C  0.49854878  0.98444954  0.81847215     0.46900
H490        H  0.50241705  0.98313144  0.84897354    -0.02100
C491        C  0.55201309  0.01505692  0.76120569    -0.15800
C492        C  0.95896065  0.01377919  0.76774297    -0.15600
C493        C  0.96338083  0.42730346  0.76324381    -0.16000
C494        C  0.55636012  0.01295948  0.79886857    -0.16000
C495        C  0.96390213  0.01297007  0.80541315    -0.15500
C496        C  0.96862043  0.42650162  0.80104780    -0.15800
Zn497      Zn  0.67251299  0.33655231  0.34348618     1.49700
Zn498      Zn  0.63059778  0.37384890  0.41471765     1.49400
Zn499      Zn  0.63460607  0.26346320  0.41404483     1.49100
Zn500      Zn  0.74913805  0.37305576  0.41663303     1.49500
O501        O  0.67176665  0.33681428  0.39667365    -1.82700
O502        O  0.64604331  0.38883922  0.32398556    -0.73300
O503        O  0.55860470  0.32559185  0.44113740    -0.73200
O504        O  0.60073295  0.20918139  0.37332992    -0.72700
O505        O  0.61544969  0.41415827  0.37348741    -0.73400
O506        O  0.62086319  0.26153364  0.32359696    -0.73000
O507        O  0.57514772  0.25599448  0.44984279    -0.73500
O508        O  0.75769725  0.32693043  0.45618427    -0.72900
O509        O  0.67557878  0.42233418  0.45619625    -0.73700
O510        O  0.68476367  0.24635263  0.44648307    -0.73100
O511        O  0.76433848  0.43748340  0.44669340    -0.73500
O512        O  0.80745697  0.39389020  0.37635363    -0.73400
O513        O  0.75326598  0.36227969  0.32582950    -0.73200
C514        C  0.62429268  0.41590755  0.33886007     0.78600
C515        C  0.54947218  0.28283563  0.45830456     0.79000
C516        C  0.59747456  0.21519607  0.33868691     0.78000
C517        C  0.72794787  0.27802534  0.46536213     0.78400
C518        C  0.72799780  0.44431432  0.46543582     0.79500
C519        C  0.80200019  0.38622290  0.34159037     0.78600
Zn520      Zn  0.66628355  0.33561765  0.12013586     1.49700
Zn521      Zn  0.58785563  0.28999608  0.18049065     1.49400
Zn522      Zn  0.72128803  0.31298708  0.18175124     1.49100
Zn523      Zn  0.69149324  0.41231100  0.17698721     1.49500
O524        O  0.66670877  0.33781915  0.17076765    -1.82700
O525        O  0.59821031  0.33610727  0.09996522    -0.73300
O526        O  0.58744300  0.22606563  0.20827964    -0.73200
O527        O  0.75025411  0.29661449  0.13314454    -0.72700
O528        O  0.54383546  0.26284353  0.13079302    -0.73400
O529        O  0.66831949  0.27092653  0.10410429    -0.73000
O530        O  0.67918001  0.24357509  0.21138278    -0.73500
O531        O  0.76341165  0.44122947  0.20814605    -0.72900
O532        O  0.55800086  0.33440760  0.21007686    -0.73700
O533        O  0.78613639  0.37381100  0.20998610    -0.73100
O534        O  0.62882865  0.41818354  0.20362343    -0.73500
O535        O  0.70642572  0.45133230  0.12680808    -0.73400
O536        O  0.73081319  0.39679338  0.09795166    -0.73200
C537        C  0.55493695  0.29063573  0.10113274     0.78600
C538        C  0.62630209  0.21333275  0.21812878     0.79000
C539        C  0.71831089  0.27598108  0.10489133     0.78000
C540        C  0.79636814  0.42171068  0.21819392     0.77400
C541        C  0.57949670  0.38516816  0.21547799     0.79500
C542        C  0.72596419  0.43936705  0.09826664     0.78600
C543        C  0.50585271  0.01546515  0.24333439     0.46900
H544        H  0.50352886  0.01551269  0.21270942    -0.02100
C545        C  0.51045762  0.01541977  0.31502192     0.46900
H546        H  0.51216705  0.01533379  0.34568530    -0.02100
C547        C  0.94574731  0.48179119  0.26223783    -0.15800
C548        C  0.53870536  0.48551600  0.26094815    -0.15600
C549        C  0.53704039  0.07220126  0.26001761    -0.16000
C550        C  0.94735803  0.48255765  0.30026560    -0.16000
C551        C  0.54097423  0.48669876  0.29898745    -0.15500
C552        C  0.53899757  0.07223080  0.29809924    -0.15800
C553        C  0.61007263  0.16239322  0.23843883    -0.15000
C554        C  0.55718988  0.12069289  0.23602123    -0.30200
H555        H  0.64160898  0.15944299  0.25636170     0.14000
H556        H  0.52708552  0.12184932  0.21594058     0.14600
C557        C  0.89487831  0.45006444  0.23895041    -0.15000
C558        C  0.84749503  0.45587415  0.24030724    -0.30200
H559        H  0.89755490  0.42234740  0.21935717     0.14000
H560        H  0.84667885  0.48690057  0.25754815     0.14600
C561        C  0.56394106  0.46017969  0.23673359    -0.15000
C562        C  0.54759858  0.40706855  0.23680765    -0.30200
H563        H  0.59697442  0.48670956  0.21803753     0.14000
H564        H  0.51216845  0.38012409  0.25386401     0.14600
C565        C  0.85299151  0.40736696  0.31832508    -0.15000
C566        C  0.89803390  0.45520017  0.32540825    -0.30200
H567        H  0.85111738  0.38536417  0.29352755     0.14000
H568        H  0.89953855  0.47552231  0.35106728     0.14600
C569        C  0.56612881  0.16763728  0.31514398    -0.15000
C570        C  0.56504680  0.12022068  0.32269932    -0.30200
H571        H  0.54566708  0.17281149  0.29054142     0.14000
H572        H  0.58355985  0.11562849  0.34850530     0.14600
C573        C  0.60815348  0.44914931  0.31479173    -0.15000
C574        C  0.56551897  0.46003975  0.32374022    -0.30200
H575        H  0.62993870  0.46217044  0.28878057     0.14000
H576        H  0.54625360  0.44801949  0.35072303     0.14600
C577        C  0.81325637  0.02679502  0.54449087    -0.11900
C578        C  0.77207385  0.02062833  0.57075795     0.10200
C579        C  0.71416505  0.98833117  0.56241387    -0.11900
C580        C  0.70633782  0.46336045  0.52883473    -0.11900
C581        C  0.74616085  0.47397122  0.50051251     0.10200
C582        C  0.80408060  0.50800225  0.50772214    -0.11900
H583        H  0.85819698  0.05226355  0.55016249     0.14200
H584        H  0.68165724  0.98415951  0.58190562     0.14200
H585        H  0.66154981  0.43605607  0.52435544     0.14200
H586        H  0.83581762  0.51604642  0.48669474     0.14200
C587        C  0.99816174  0.22658573  0.55303734    -0.11900
C588        C  0.96239929  0.24918103  0.56133346     0.10200
C589        C  0.95244410  0.28033987  0.53456426    -0.11900
C590        C  0.47869528  0.29037600  0.50018330    -0.11900
C591        C  0.51435331  0.26749420  0.49179898     0.10200
C592        C  0.52346611  0.23571372  0.51849376    -0.11900
H593        H  0.00535035  0.20133861  0.57283296     0.14200
H594        H  0.92414645  0.29740059  0.54022157     0.14200
H595        H  0.47174009  0.31574650  0.48037233     0.14200
H596        H  0.55165691  0.21840750  0.51322232     0.14200
C597        C  0.70683472  0.20471150  0.51090264    -0.11900
C598        C  0.73848844  0.25902534  0.50125538     0.10200
C599        C  0.77176364  0.29605986  0.52853098    -0.11900
C600        C  0.77318381  0.27896586  0.56468870    -0.11900
C601        C  0.74164762  0.22456771  0.57410868     0.10200
C602        C  0.70842819  0.18770848  0.54685240    -0.11900
H603        H  0.67996877  0.17529607  0.49075485     0.14200
H604        H  0.79559301  0.33841330  0.52216638     0.14200
H605        H  0.80037500  0.30798885  0.58494191     0.14200
H606        H  0.68442861  0.14533640  0.55319702     0.14200
C607        C  0.92031848  0.03132218  0.74888901    -0.15000
C608        C  0.94094365  0.07264545  0.72533325    -0.30200
H609        H  0.87628710  0.01432301  0.75778059     0.14000
H610        H  0.98629670  0.09204678  0.71930956     0.14600
C611        C  0.64799049  0.08647961  0.74308293    -0.15000
C612        C  0.60283260  0.03806706  0.73650773    -0.30200
H613        H  0.64508155  0.11175700  0.76452196     0.14000
H614        H  0.60287638  0.01488801  0.71276147     0.14600
C615        C  0.94399054  0.33755420  0.74080550    -0.15000
C616        C  0.93196882  0.37894087  0.74001942    -0.30200
H617        H  0.98000243  0.34050090  0.75702729     0.14000
H618        H  0.89968430  0.37842012  0.72112026     0.14600
C619        C  0.51752901  0.27869260  0.99956428    -0.11900
C620        C  0.97751440  0.22398558  0.99664959     0.10200
C621        C  0.96044312  0.19227181  0.02891656    -0.11900
C622        C  0.98285304  0.21429353  0.06341805    -0.11900
C623        C  0.52352844  0.26872614  0.06621355     0.10200
C624        C  0.53989715  0.30064437  0.03402188    -0.11900
H625        H  0.53035738  0.30449898  0.97548723     0.14200
H626        H  0.92900949  0.15032546  0.02762736     0.14200
H627        H  0.96987438  0.18863857  0.08756534     0.14200
H628        H  0.57100440  0.34270113  0.03529469     0.14200
C629        C  0.76758437  0.98113123  0.00043122    -0.11900
C630        C  0.75265460  0.02268244  0.99793659     0.10200
C631        C  0.73227011  0.03692266  0.02951477    -0.11900
C632        C  0.72735931  0.51561956  0.06168477    -0.11900
C633        C  0.73776061  0.47125132  0.06395676     0.10200
C634        C  0.75378755  0.45383226  0.03185583    -0.11900
H635        H  0.78448967  0.97009245  0.97680370     0.14200
H636        H  0.72083433  0.06918153  0.02850201     0.14200
H637        H  0.71390798  0.52934206  0.08568627     0.14200
H638        H  0.76116402  0.41910593  0.03253129     0.14200
C639        C  0.70676472  0.25244727  0.03837580    -0.11900
C640        C  0.73986370  0.26354535  0.07092531     0.10200
C641        C  0.79478120  0.26804063  0.06926182    -0.11900
C642        C  0.81571785  0.26073727  0.03568815    -0.11900
C643        C  0.78228927  0.24938915  0.00321468     0.10200
C644        C  0.72781333  0.24572952  0.00492709    -0.11900
H645        H  0.66450043  0.24954760  0.03851226     0.14200
H646        H  0.82141919  0.27723894  0.09373921     0.14200
H647        H  0.85772625  0.26305495  0.03531522     0.14200
H648        H  0.70076537  0.23627895  0.98061888     0.14200
C649        C  0.94005486  0.08409978  0.82599623    -0.15000
C650        C  0.93515648  0.03447810  0.83074472    -0.30200
H651        H  0.96996392  0.11068961  0.80573937     0.14000
H652        H  0.90980433  0.00923363  0.85319812     0.14600
C653        C  0.63289703  0.07164853  0.84085336    -0.15000
C654        C  0.61159606  0.02922879  0.81839643    -0.30200
H655        H  0.60763151  0.09237875  0.84577777     0.14000
H656        H  0.63780340  0.01059755  0.81052140     0.14600
C657        C  0.89736231  0.33589432  0.82276573    -0.15000
C658        C  0.95046771  0.37723806  0.82409648    -0.30200
H659        H  0.86517272  0.33900481  0.80565593     0.14000
H660        H  0.98100696  0.37647847  0.84394970     0.14600
Zn661      Zn  0.79964750  0.58825577  0.88353680     1.49700
Zn662      Zn  0.83951175  0.66595367  0.94439633     1.49400
Zn663      Zn  0.91420390  0.70727250  0.88209263     1.49100
Zn664      Zn  0.78864860  0.69838307  0.88525777     1.49500
O665        O  0.83502748  0.66415255  0.89337133    -1.82700
O666        O  0.78080806  0.54616817  0.93296957    -0.73300
O667        O  0.90681356  0.66078421  0.96141143    -0.73200
O668        O  0.93678239  0.65684383  0.85392970    -0.72700
O669        O  0.77309313  0.60733043  0.96656137    -0.73400
O670        O  0.85992070  0.57549649  0.85558677    -0.73000
O671        O  0.96000799  0.73494017  0.93123376    -0.73500
O672        O  0.83176650  0.76340258  0.85370342    -0.72900
O673        O  0.84372438  0.73213421  0.96427821    -0.73700
O674        O  0.92005963  0.77178631  0.85178234    -0.73100
O675        O  0.76576871  0.71802249  0.93380582    -0.73500
O676        O  0.71793239  0.64635122  0.86021115    -0.73400
O677        O  0.72353273  0.56969303  0.85546852    -0.73200
C678        C  0.76748033  0.56051807  0.96318167     0.78600
C679        C  0.94935765  0.70685677  0.96074201     0.79000
C680        C  0.91181991  0.60652366  0.84640994     0.78000
C681        C  0.88354573  0.78817621  0.84338048     0.78400
C682        C  0.79646320  0.73305393  0.96292679     0.79500
C683        C  0.69699914  0.59760628  0.85026567     0.78600
Zn684      Zn  0.82743944  0.66483893  0.61930985     1.49700
Zn685      Zn  0.91561431  0.70025251  0.67528845     1.49400
Zn686      Zn  0.79826324  0.70781661  0.68245323     1.49100
Zn687      Zn  0.79612190  0.58935884  0.68126810     1.49500
O688        O  0.83489563  0.66511861  0.67016585    -1.82700
O689        O  0.88504379  0.73125677  0.59630170    -0.73300
O690        O  0.93777726  0.76607528  0.70662206    -0.73200
O691        O  0.77639198  0.73316376  0.63364003    -0.72700
O692        O  0.95352131  0.72132641  0.62483918    -0.73400
O693        O  0.75200524  0.65633672  0.60618010    -0.73000
O694        O  0.85760189  0.77380420  0.71109476    -0.73500
O695        O  0.72335683  0.57588801  0.70981593    -0.72900
O696        O  0.93739167  0.64830566  0.69983409    -0.73700
O697        O  0.72666804  0.65705291  0.71178213    -0.73100
O698        O  0.85569316  0.57295907  0.70892284    -0.73500
O699        O  0.77216879  0.54505389  0.63285711    -0.73400
O700        O  0.83668617  0.60669602  0.59714530    -0.73200
C701        C  0.93494841  0.73600141  0.59663657     0.78600
C702        C  0.91092922  0.79082176  0.71789944     0.79000
C703        C  0.75552186  0.70262360  0.60564630     0.78000
C704        C  0.70196713  0.60661813  0.71923414     0.78400
C705        C  0.91027158  0.60034754  0.71191199     0.79500
C706        C  0.79837925  0.55910071  0.60214215     0.78600
C707        C  0.49079699  0.48472984  0.74670435     0.46900
H708        H  0.48661644  0.48514362  0.71618417    -0.02100
C709        C  0.49988469  0.48320331  0.81837582     0.46900
H710        H  0.50395368  0.48256031  0.84889681    -0.02100
C711        C  0.55339934  0.51182639  0.76081669    -0.15800
C712        C  0.96137397  0.51267461  0.76656098    -0.15600
C713        C  0.96372143  0.92991715  0.76310563    -0.16000
C714        C  0.55762125  0.50997052  0.79848912    -0.16000
C715        C  0.96629745  0.51250137  0.80428520    -0.15500
C716        C  0.96934900  0.92857838  0.80090628    -0.15800
Zn717      Zn  0.67221557  0.83667573  0.34201261     1.49700
Zn718      Zn  0.62792861  0.87136387  0.41335632     1.49400
Zn719      Zn  0.63578705  0.76317735  0.41259578     1.49100
Zn720      Zn  0.74854498  0.87414054  0.41525843     1.49500
O721        O  0.67145958  0.83654408  0.39521331    -1.82700
O722        O  0.64499542  0.88863607  0.32300792    -0.73300
O723        O  0.55597032  0.82100717  0.43879202    -0.73200
O724        O  0.59902456  0.70914100  0.37212144    -0.72700
O725        O  0.61243186  0.91192003  0.37250984    -0.73400
O726        O  0.62032531  0.76115907  0.32212697    -0.73000
O727        O  0.57890594  0.75598596  0.45026387    -0.73500
O728        O  0.75933427  0.82700758  0.45319326    -0.72900
O729        O  0.67041973  0.91964434  0.45560976    -0.73700
O730        O  0.68781548  0.74573343  0.44296849    -0.73100
O731        O  0.75964356  0.93492743  0.44804762    -0.73500
O732        O  0.80729067  0.90049356  0.37458365    -0.73400
O733        O  0.75364898  0.86543285  0.32424264    -0.73200
C734        C  0.62242459  0.91489059  0.33799825     0.78600
C735        C  0.55093639  0.78098017  0.45786480     0.79000
C736        C  0.59572732  0.71494777  0.33745006     0.78000
C737        C  0.73075796  0.77773047  0.46190366     0.78400
C738        C  0.72235795  0.94147144  0.46595124     0.79500
C739        C  0.80218049  0.89260771  0.33980584     0.78600
Zn740      Zn  0.66560769  0.83410563  0.11797338     1.49700
Zn741      Zn  0.58950124  0.79012209  0.17953317     1.49400
Zn742      Zn  0.71631219  0.80063939  0.17618391     1.49100
Zn743      Zn  0.70180261  0.90935766  0.17870474     1.49500
O744        O  0.66853492  0.83367599  0.16906808    -1.82700
O745        O  0.59957193  0.84146327  0.10060547    -0.73300
O746        O  0.58408729  0.72367174  0.20732649    -0.73200
O747        O  0.73653028  0.77913129  0.12733268    -0.72700
O748        O  0.54506010  0.76661813  0.12987628    -0.73400
O749        O  0.66023521  0.76854226  0.09627022    -0.73000
O750        O  0.67367963  0.73482523  0.20789091    -0.73500
O751        O  0.78144869  0.93134330  0.20314912    -0.72900
O752        O  0.56511833  0.83841558  0.20897649    -0.73700
O753        O  0.78977033  0.85600760  0.19784595    -0.73100
O754        O  0.64119889  0.92024112  0.20799632    -0.73500
O755        O  0.71485114  0.94973505  0.12908814    -0.73400
O756        O  0.73380657  0.89335658  0.09796062    -0.73200
C757        C  0.55616589  0.79592398  0.10091638     0.78600
C758        C  0.62104368  0.70796327  0.21626251     0.79000
C759        C  0.70609633  0.76509342  0.09807506     0.78000
C760        C  0.81044934  0.90537273  0.20649026     0.77400
C761        C  0.58926685  0.88860527  0.21687631     0.79500
C762        C  0.73188422  0.93722784  0.09963330     0.78600
C763        C  0.50456367  0.51220540  0.24425437     0.46900
H764        H  0.50306386  0.51139608  0.21358504    -0.02100
C765        C  0.50802230  0.51392414  0.31586004     0.46900
H766        H  0.50930321  0.51445296  0.34653425    -0.02100
C767        C  0.94697832  0.99011641  0.26190391    -0.15800
C768        C  0.53738068  0.98495905  0.25920143    -0.15600
C769        C  0.53107675  0.56924521  0.26046506    -0.16000
C770        C  0.94964634  0.98861116  0.29969526    -0.16000
C771        C  0.53944639  0.98521751  0.29730988    -0.15500
C772        C  0.53310277  0.57029117  0.29850112    -0.15800
C773        C  0.60347441  0.65762217  0.23733792    -0.15000
C774        C  0.55004888  0.61701654  0.23606367    -0.30200
H775        H  0.63523458  0.65388893  0.25468073     0.14000
H776        H  0.51921460  0.61840164  0.21662999     0.14600
C777        C  0.89253985  0.97483336  0.24151859    -0.15000
C778        C  0.87035591  0.93147029  0.21992294    -0.30200
H779        H  0.86629009  0.99329065  0.24951395     0.14000
H780        H  0.89539886  0.91055471  0.21517452     0.14600
C781        C  0.56520788  0.96130632  0.23479625    -0.15000
C782        C  0.55572274  0.90988176  0.23755019    -0.30200
H783        H  0.59476760  0.98746891  0.21429135     0.14000
H784        H  0.52265986  0.88265514  0.25589701     0.14600
C785        C  0.85310588  0.91629943  0.31623876    -0.15000
C786        C  0.89965978  0.96263039  0.32468464    -0.30200
H787        H  0.85074242  0.89628410  0.29042012     0.14000
H788        H  0.90251218  0.98115718  0.35130617     0.14600
C789        C  0.56289546  0.66715843  0.31427109    -0.15000
C790        C  0.55926020  0.61891249  0.32265968    -0.30200
H791        H  0.54334574  0.67282244  0.28934124     0.14000
H792        H  0.57702565  0.61429915  0.34883400     0.14600
C793        C  0.60715384  0.94904448  0.31431374    -0.15000
C794        C  0.56181843  0.95645245  0.32173154    -0.30200
H795        H  0.63199061  0.96588559  0.28964642     0.14000
H796        H  0.53931645  0.94081995  0.34746070     0.14600
C797        C  0.82153401  0.53273417  0.54201054    -0.11900
C798        C  0.78158482  0.52323244  0.57001128     0.10200
C799        C  0.72398257  0.48750399  0.56340801    -0.11900
C800        C  0.69776166  0.96395233  0.52776083    -0.11900
C801        C  0.73909928  0.97112462  0.50115166     0.10200
C802        C  0.79702366  0.00200278  0.51019642    -0.11900
H803        H  0.86619812  0.56065699  0.54632637     0.14200
H804        H  0.69227537  0.48038701  0.58428151     0.14200
H805        H  0.65276587  0.93929225  0.52186763     0.14200
H806        H  0.82987557  0.00752465  0.49059045     0.14200
C807        C  0.00575027  0.73162711  0.55468905    -0.11900
C808        C  0.96791929  0.75213633  0.56238880     0.10200
C809        C  0.95548782  0.78075254  0.53488187    -0.11900
C810        C  0.48125802  0.78907009  0.50025767    -0.11900
C811        C  0.51779904  0.76708163  0.49217304     0.10200
C812        C  0.52933902  0.73771806  0.51957696    -0.11900
H813        H  0.01503939  0.70845118  0.57509606     0.14200
H814        H  0.92570358  0.79629386  0.54008300     0.14200
H815        H  0.47248467  0.81267324  0.47991845     0.14200
H816        H  0.55833566  0.72123567  0.51451217     0.14200
C817        C  0.71494700  0.70364248  0.50584081    -0.11900
C818        C  0.74194590  0.75867109  0.49761781     0.10200
C819        C  0.77014820  0.79553303  0.52616508    -0.11900
C820        C  0.77132149  0.77760199  0.56213009    -0.11900
C821        C  0.74471821  0.72250679  0.57016224     0.10200
C822        C  0.71643712  0.68578501  0.54161258    -0.11900
H823        H  0.69182421  0.67427928  0.48467300     0.14200
H824        H  0.78992409  0.83830183  0.52094356     0.14200
H825        H  0.79448200  0.80677992  0.58338897     0.14200
H826        H  0.69618513  0.64298166  0.54681767     0.14200
C827        C  0.92335309  0.53050016  0.74716908    -0.15000
C828        C  0.94515409  0.57741669  0.72916463    -0.30200
H829        H  0.87754585  0.50703812  0.75049072     0.14000
H830        H  0.99130308  0.60125334  0.72803068     0.14600
C831        C  0.64787775  0.58427417  0.74049207    -0.15000
C832        C  0.60441210  0.53411319  0.73605251    -0.30200
H833        H  0.64298932  0.61084873  0.76003065     0.14000
H834        H  0.60599559  0.50887468  0.71408467     0.14600
C835        C  0.94338992  0.83982952  0.74012110    -0.15000
C836        C  0.93243000  0.88188695  0.73924298    -0.30200
H837        H  0.97877903  0.84217686  0.75680585     0.14000
H838        H  0.90099077  0.88212690  0.71988932     0.14600
C839        C  0.52069906  0.78381906  0.99879186    -0.11900
C840        C  0.97960211  0.72933369  0.99600337     0.10200
C841        C  0.96078475  0.69858357  0.02859035    -0.11900
C842        C  0.98307683  0.72086716  0.06299149    -0.11900
C843        C  0.52515410  0.77479684  0.06572765     0.10200
C844        C  0.54333052  0.80599995  0.03326469    -0.11900
H845        H  0.53486455  0.80899499  0.97444770     0.14200
H846        H  0.92798972  0.65711550  0.02765198     0.14200
H847        H  0.96844536  0.69575787  0.08734284     0.14200
H848        H  0.57601499  0.84750039  0.03436343     0.14200
C849        C  0.76030832  0.48088003  0.99836574    -0.11900
C850        C  0.75106494  0.52592865  0.99630519     0.10200
C851        C  0.73394318  0.54267463  0.02824841    -0.11900
C852        C  0.72766926  0.01069387  0.06304399    -0.11900
C853        C  0.74322486  0.96958781  0.06569270     0.10200
C854        C  0.76295526  0.95484203  0.03400757    -0.11900
H855        H  0.77427022  0.46751548  0.97442143     0.14200
H856        H  0.72678127  0.57752877  0.02764216     0.14200
H857        H  0.71118980  0.02210056  0.08671237     0.14200
H858        H  0.77460340  0.92272826  0.03508161     0.14200
C859        C  0.69484147  0.74054333  0.03157559    -0.11900
C860        C  0.72724046  0.75185092  0.06439358     0.10200
C861        C  0.78321584  0.75892985  0.06319797    -0.11900
C862        C  0.80666993  0.75545197  0.02976321    -0.11900
C863        C  0.77444264  0.74457603  0.99689585     0.10200
C864        C  0.71828384  0.73700813  0.99813476    -0.11900
H865        H  0.65178292  0.73555153  0.03156018     0.14200
H866        H  0.80946565  0.76851962  0.08791522     0.14200
H867        H  0.84977124  0.76055774  0.02979041     0.14200
H868        H  0.69210361  0.72753927  0.97339018     0.14200
C869        C  0.94405360  0.58471009  0.82513096    -0.15000
C870        C  0.93765196  0.53448654  0.82932824    -0.30200
H871        H  0.97512187  0.61150184  0.80546226     0.14000
H872        H  0.91100395  0.50891393  0.85126818     0.14600
C873        C  0.63981701  0.57495693  0.83298422    -0.15000
C874        C  0.61254415  0.52614691  0.81814060    -0.30200
H875        H  0.61948278  0.60078537  0.83149378     0.14000
H876        H  0.63203534  0.49970101  0.81780447     0.14600
C877        C  0.90041417  0.83700977  0.82091122    -0.15000
C878        C  0.95256018  0.87920260  0.82332767    -0.30200
H879        H  0.86814897  0.83963160  0.80353001     0.14000
H880        H  0.98293089  0.87898764  0.84358650     0.14600
loop_ 
_geom_bond_atom_site_label_1 
_geom_bond_atom_site_label_2 
_geom_bond_distance 
_geom_bond_site_symmetry_2 
_ccdc_geom_bond_type 
Zn1           O5   1.932       .  S
Zn1           O6   2.072       .  S
Zn1          O10   2.065       .  S
Zn1          O17   2.081       .  S
Zn2           O5   1.856       .  S
Zn2           O7   1.949       .  S
Zn2           O9   1.940       .  S
Zn2          O13   1.958       .  S
Zn3           O5   1.915       .  S
Zn3           O8   2.053       .  S
Zn3          O11   2.070       .  S
Zn3          O14   2.058       .  S
Zn4           O5   1.901       .  S
Zn4          O12   2.033       .  S
Zn4          O15   2.049       .  S
Zn4          O16   2.005       .  S
O6           C18   1.278       .  A
O7           C19   1.263       .  A
O8           C20   1.283       .  A
O9           C18   1.261       .  A
O10          C20   1.284       .  A
O11          C19   1.278       .  A
O12          C21   1.278       .  A
O13          C22   1.264       .  A
O14          C21   1.282       .  A
O15          C22   1.277       .  A
O16          C23   1.276       .  A
O17          C23   1.287       .  A
C18         C190   1.473       .  S
C19         C180   1.478       .  S
C20         C209   1.485       .  S
C21         C217   1.482       .  S
C22         C203   1.474   1_556  S
C23         C213   1.480       .  S
Zn24         O28   1.850       .  S
Zn24         O29   1.974       .  S
Zn24         O33   1.949       .  S
Zn24         O40   1.941       .  S
Zn25         O28   1.894       .  S
Zn25         O30   2.024       .  S
Zn25         O32   2.039       .  S
Zn25         O36   2.000       .  S
Zn26         O28   1.918       .  S
Zn26         O31   2.065       .  S
Zn26         O34   2.047       .  S
Zn26         O37   2.053       .  S
Zn27         O28   1.927       .  S
Zn27         O35   2.059       .  S
Zn27         O38   2.078       .  S
Zn27         O39   2.077       .  S
O29          C41   1.265       .  A
O30          C42   1.277       .  A
O31          C43   1.276       .  A
O32          C41   1.276       .  A
O33          C43   1.262       .  A
O34          C42   1.281       .  A
O35          C44   1.283       .  A
O36          C45   1.275       .  A
O37          C44   1.283       .  A
O38          C45   1.286       .  A
O39          C46   1.277       .  A
O40          C46   1.262       .  A
C41         C148   1.469       .  S
C42         C175   1.477       .  S
C43         C161   1.471       .  S
C44         C171   1.483       .  S
C45         C168   1.479       .  S
C46         C138   1.469       .  S
C47          H48   1.111       .  S
C47          C51   1.549   1_665  S
C47         C713   1.541       .  S
C47         C492   1.540   1_565  S
C49          H50   1.111   1_655  S
C49          C54   1.538   1_665  S
C49         C495   1.548   1_565  S
C49         C716   1.541       .  S
C51          C54   1.372       .  D
C51         C172   1.496       .  S
C52         C487   1.540   1_545  S
C52          C55   1.371       .  D
C52         C167   1.484       .  S
C53         C707   1.544       .  S
C53          C56   1.377       .  D
C53         C176   1.485       .  S
C54         C214   1.485       .  S
C55         C489   1.548   1_545  S
C55         C210   1.498       .  S
C56         C709   1.539       .  S
C56         C218   1.491       .  S
Zn57         O61   1.928       .  S
Zn57         O62   2.022       .  S
Zn57         O66   2.040       .  S
Zn57         O73   2.021       .  S
Zn58         O61   1.945       .  S
Zn58         O63   2.002       .  S
Zn58         O65   2.016       .  S
Zn58         O69   2.005       .  S
Zn59         O61   1.932       .  S
Zn59         O64   2.011       .  S
Zn59         O67   1.986       .  S
Zn59         O70   1.981       .  S
Zn60         O61   1.947       .  S
Zn60         O68   2.008       .  S
Zn60         O71   1.996       .  S
Zn60         O72   2.016       .  S
O62          C74   1.275       .  A
O63          C75   1.271       .  A
O64          C76   1.273       .  A
O65          C74   1.276       .  A
O66          C76   1.277       .  A
O67          C75   1.270       .  A
O68          C77   1.272       .  A
O69          C78   1.271       .  A
O70          C77   1.270       .  A
O71          C78   1.271       .  A
O72          C79   1.276       .  A
O73          C79   1.275       .  A
C74         C133   1.473       .  S
C75         C151   1.473       .  S
C76         C129   1.475       .  S
C77         C158   1.475       .  S
C78         C141   1.475       .  S
C79         C125   1.470       .  S
Zn80         O84   1.837       .  S
Zn80         O85   1.943       .  S
Zn80         O89   1.941       .  S
Zn80         O96   1.950       .  S
Zn81         O84   1.922       .  S
Zn81         O86   2.051       .  S
Zn81         O88   2.082       .  S
Zn81         O92   2.073       .  S
Zn82         O84   1.911       .  S
Zn82         O87   2.067       .  S
Zn82         O90   2.046       .  S
Zn82         O93   2.044       .  S
Zn83         O84   1.899       .  S
Zn83         O91   2.023       .  S
Zn83         O94   2.001       .  S
Zn83         O95   2.063       .  S
O85          C97   1.261       .  A
O86          C98   1.283       .  A
O87          C99   1.278       .  A
O88          C97   1.279       .  A
O89          C99   1.264       .  A
O90          C98   1.281       .  A
O91         C100   1.277       .  A
O92         C101   1.285       .  A
O93         C100   1.283       .  A
O94         C101   1.278       .  A
O95         C102   1.277       .  A
O96         C102   1.263       .  A
C97         C183   1.478       .  S
C98         C113   1.484       .  S
C99         C200   1.474       .  S
C100        C118   1.475       .  S
C101        C122   1.482       .  S
C102        C193   1.477       .  S
C103        H104   1.111       .  S
C103        C109   1.542       .  S
C103        C328   1.553   1_545  S
C103        C767   1.547   1_445  S
C105        H106   1.112       .  S
C105        C112   1.542       .  S
C105        C331   1.533   1_545  S
C105        C770   1.531   1_445  S
C107        C763   1.532       .  S
C107        C110   1.379       .  D
C107        C117   1.480       .  S
C108        C323   1.535       .  S
C108        C111   1.379       .  D
C108        C121   1.480       .  S
C109        C112   1.381       .  D
C109        C114   1.490       .  S
C110        C765   1.537       .  S
C110        C126   1.487       .  S
C111        C325   1.538       .  S
C111        C134   1.490       .  S
C112        C130   1.494       .  S
C113        C114   1.348       .  D
C113        H115   1.085       .  S
C114        H116   1.084       .  S
C117        C118   1.340       .  D
C117        H119   1.086       .  S
C118        H120   1.087       .  S
C121        C122   1.349       .  D
C121        H123   1.087       .  S
C122        H124   1.087       .  S
C125        C126   1.344       .  D
C125        H127   1.083       .  S
C126        H128   1.087       .  S
C129        C130   1.348       .  D
C129        H131   1.082       .  S
C130        H132   1.085       .  S
C133        C134   1.344       .  D
C133        H135   1.080       .  S
C134        H136   1.085       .  S
C137        C138   1.404       .  A
C137        C362   1.393       .  A
C137        H143   1.084       .  S
C138        C139   1.402   1_545  A
C139        C360   1.400       .  A
C139        H144   1.083       .  S
C140        C141   1.408       .  A
C140        C359   1.398       .  A
C140        H145   1.083       .  S
C141        C142   1.402       .  A
C142        C357   1.394       .  A
C142        H146   1.083       .  S
C147        C148   1.400       .  A
C147        C592   1.391       .  A
C147        H153   1.082       .  S
C148        C149   1.406       .  A
C149        C590   1.400       .  A
C149        H154   1.083       .  S
C150        C151   1.405   1_655  A
C150        C589   1.399       .  A
C150        H155   1.082       .  S
C151        C152   1.406       .  A
C152        C587   1.391   1_455  A
C152        H156   1.084       .  S
C157        C158   1.403       .  A
C157        C162   1.392       .  A
C157        H163   1.084       .  S
C158        C159   1.408       .  A
C159        C160   1.399       .  A
C159        H164   1.083       .  S
C160        C161   1.403       .  A
C160        H165   1.084       .  S
C161        C162   1.405       .  A
C162        H166   1.083       .  S
C167        C168   1.336       .  D
C167        H169   1.086       .  S
C168        H170   1.087       .  S
C171        C172   1.352       .  D
C171        H173   1.085       .  S
C172        H174   1.085       .  S
C175        C176   1.343       .  D
C175        H177   1.084       .  S
C176        H178   1.084       .  S
C179        C184   1.395   1_556  A
C179        C620   1.400   1_455  A
C179        H185   1.083       .  S
C180        C181   1.411   1_556  A
C180        C619   1.401       .  A
C181        C182   1.397       .  A
C181        H186   1.084       .  S
C182        C623   1.401       .  A
C182        H187   1.083       .  S
C183        C184   1.411       .  A
C183        C622   1.401   1_455  A
C184        H188   1.084       .  S
C189        C190   1.400   1_564  A
C189        C414   1.396       .  A
C189        H195   1.083   1_554  S
C190        C191   1.409   1_556  A
C191        C412   1.394       .  A
C191        H196   1.083       .  S
C192        C193   1.400       .  A
C192        C411   1.395       .  A
C192        H197   1.083       .  S
C193        C194   1.410       .  A
C194        C409   1.397   1_554  A
C194        H198   1.082       .  S
C199        C200   1.409       .  A
C199        C204   1.391       .  A
C199        H205   1.083       .  S
C200        C201   1.401       .  A
C201        C202   1.399       .  A
C201        H206   1.082       .  S
C202        C203   1.410       .  A
C202        H207   1.084       .  S
C203        C204   1.400       .  A
C204        H208   1.082   1_554  S
C209        C210   1.352       .  D
C209        H211   1.086       .  S
C210        H212   1.085       .  S
C213        C214   1.336       .  D
C213        H215   1.090       .  S
C214        H216   1.088       .  S
C217        C218   1.346       .  D
C217        H219   1.084       .  S
C218        H220   1.084       .  S
Zn221       O225   1.927       .  S
Zn221       O226   2.073       .  S
Zn221       O230   2.069       .  S
Zn221       O237   2.085       .  S
Zn222       O225   1.851       .  S
Zn222       O227   1.947       .  S
Zn222       O229   1.943       .  S
Zn222       O233   1.957       .  S
Zn223       O225   1.918       .  S
Zn223       O228   2.060       .  S
Zn223       O231   2.085       .  S
Zn223       O234   2.058       .  S
Zn224       O225   1.901       .  S
Zn224       O232   2.004       .  S
Zn224       O235   2.031       .  S
Zn224       O236   1.976       .  S
O226        C238   1.279       .  A
O227        C239   1.262       .  A
O228        C240   1.284       .  A
O229        C238   1.263       .  A
O230        C240   1.285       .  A
O231        C239   1.279       .  A
O232        C241   1.275       .  A
O233        C242   1.264       .  A
O234        C241   1.283       .  A
O235        C242   1.273       .  A
O236        C243   1.271       .  A
O237        C243   1.286       .  A
C238        C410   1.476       .  S
C239        C400   1.481       .  S
C240        C429   1.487       .  S
C241        C437   1.474       .  S
C242        C423   1.470       .  S
C243        C433   1.475       .  S
Zn244       O248   1.851       .  S
Zn244       O249   1.968       .  S
Zn244       O253   1.951       .  S
Zn244       O260   1.946       .  S
Zn245       O248   1.899       .  S
Zn245       O250   2.018       .  S
Zn245       O252   2.044       .  S
Zn245       O256   2.002       .  S
Zn246       O248   1.919       .  S
Zn246       O251   2.075       .  S
Zn246       O254   2.067       .  S
Zn246       O257   2.066       .  S
Zn247       O248   1.929       .  S
Zn247       O255   2.070       .  S
Zn247       O258   2.082       .  S
Zn247       O259   2.074       .  S
O249        C261   1.264       .  A
O250        C262   1.277       .  A
O251        C263   1.278       .  A
O252        C261   1.276       .  A
O253        C263   1.263       .  A
O254        C262   1.284       .  A
O255        C264   1.285       .  A
O256        C265   1.275       .  A
O257        C264   1.285       .  A
O258        C265   1.287       .  A
O259        C266   1.278       .  A
O260        C266   1.262       .  A
C261        C368   1.469       .  S
C262        C395   1.479       .  S
C263        C381   1.475       .  S
C264        C391   1.490       .  S
C265        C388   1.481       .  S
C266        C358   1.470       .  S
C267        H268   1.111       .  S
C267        C493   1.544       .  S
C267        C712   1.540       .  S
C267        C271   1.549   1_655  S
C269        H270   1.111   1_655  S
C269        C715   1.549       .  S
C269        C274   1.539   1_655  S
C269        C496   1.539       .  S
C271        C274   1.371       .  D
C271        C392   1.501       .  S
C272        C707   1.540       .  S
C272        C275   1.372       .  D
C272        C387   1.485       .  S
C273        C487   1.541       .  S
C273        C276   1.379       .  D
C273        C396   1.491       .  S
C274        C434   1.481       .  S
C275        C709   1.550       .  S
C275        C430   1.499       .  S
C276        C489   1.540       .  S
C276        C438   1.485       .  S
Zn277       O281   1.928       .  S
Zn277       O282   2.021       .  S
Zn277       O286   2.053       .  S
Zn277       O293   2.029       .  S
Zn278       O281   1.949       .  S
Zn278       O283   2.000       .  S
Zn278       O285   2.015       .  S
Zn278       O289   2.007       .  S
Zn279       O281   1.932       .  S
Zn279       O284   2.009       .  S
Zn279       O287   1.983       .  S
Zn279       O290   1.982       .  S
Zn280       O281   1.945       .  S
Zn280       O288   2.011       .  S
Zn280       O291   1.997       .  S
Zn280       O292   2.026       .  S
O282        C294   1.274       .  A
O283        C295   1.271       .  A
O284        C296   1.273       .  A
O285        C294   1.276       .  A
O286        C296   1.278       .  A
O287        C295   1.270       .  A
O288        C297   1.272       .  A
O289        C298   1.271       .  A
O290        C297   1.270       .  A
O291        C298   1.271       .  A
O292        C299   1.276       .  A
O293        C299   1.277       .  A
C294        C353   1.471       .  S
C295        C371   1.472       .  S
C296        C349   1.478       .  S
C297        C378   1.476       .  S
C298        C361   1.477       .  S
C299        C345   1.474       .  S
Zn300       O304   1.853       .  S
Zn300       O305   1.950       .  S
Zn300       O309   1.955       .  S
Zn300       O316   1.944       .  S
Zn301       O304   1.911       .  S
Zn301       O306   2.064       .  S
Zn301       O308   2.076       .  S
Zn301       O312   2.065       .  S
Zn302       O304   1.901       .  S
Zn302       O307   2.033       .  S
Zn302       O310   2.018       .  S
Zn302       O313   1.998       .  S
Zn303       O304   1.922       .  S
Zn303       O311   2.089       .  S
Zn303       O314   2.073       .  S
Zn303       O315   2.065       .  S
O305        C317   1.263       .  A
O306        C318   1.285       .  A
O307        C319   1.273       .  A
O308        C317   1.280       .  A
O309        C319   1.263       .  A
O310        C318   1.277       .  A
O311        C320   1.287       .  A
O312        C321   1.284       .  A
O313        C320   1.275       .  A
O314        C321   1.286       .  A
O315        C322   1.278       .  A
O316        C322   1.262       .  A
C317        C403   1.479       .  S
C318        C333   1.478       .  S
C319        C420   1.470       .  S
C320        C338   1.482       .  S
C321        C342   1.492       .  S
C322        C413   1.473       .  S
C323        H324   1.112       .  S
C323        C329   1.540       .  S
C323        C547   1.532   1_455  S
C325        H326   1.112       .  S
C325        C550   1.537   1_455  S
C325        C332   1.540       .  S
C327        C543   1.547   1_565  S
C327        C330   1.372       .  D
C327        C337   1.487       .  S
C328        C331   1.382       .  D
C328        C341   1.500       .  S
C329        C332   1.379       .  D
C329        C334   1.485       .  S
C330        C545   1.531   1_565  S
C330        C346   1.491       .  S
C331        C354   1.487       .  S
C332        C350   1.498       .  S
C333        C334   1.343       .  D
C333        H335   1.087       .  S
C334        H336   1.086       .  S
C337        C338   1.336       .  D
C337        H339   1.086       .  S
C338        H340   1.088       .  S
C341        C342   1.353       .  D
C341        H343   1.085       .  S
C342        H344   1.085       .  S
C345        C346   1.348       .  D
C345        H347   1.082       .  S
C346        H348   1.086       .  S
C349        C350   1.349       .  D
C349        H351   1.083       .  S
C350        H352   1.087       .  S
C353        C354   1.341       .  D
C353        H355   1.083       .  S
C354        H356   1.087       .  S
C357        C358   1.406       .  A
C357        H363   1.083       .  S
C358        C359   1.401       .  A
C359        H364   1.083       .  S
C360        C361   1.409       .  A
C360        H365   1.083       .  S
C361        C362   1.403   1_565  A
C362        H366   1.083       .  S
C367        C368   1.401       .  A
C367        C812   1.392       .  A
C367        H373   1.082       .  S
C368        C369   1.406       .  A
C369        C810   1.398       .  A
C369        H374   1.084       .  S
C370        C809   1.398       .  A
C370        C371   1.404   1_655  A
C370        H375   1.082       .  S
C371        C372   1.406       .  A
C372        C807   1.392       .  A
C372        H376   1.084       .  S
C377        C378   1.403       .  A
C377        C382   1.393       .  A
C377        H383   1.084       .  S
C378        C379   1.408       .  A
C379        C380   1.399       .  A
C379        H384   1.083       .  S
C380        C381   1.403       .  A
C380        H385   1.084       .  S
C381        C382   1.407       .  A
C382        H386   1.083       .  S
C387        C388   1.338       .  D
C387        H389   1.086       .  S
C388        H390   1.088       .  S
C391        C392   1.354       .  D
C391        H393   1.086       .  S
C392        H394   1.085       .  S
C395        C396   1.344       .  D
C395        H397   1.085       .  S
C396        H398   1.085       .  S
C399        C840   1.402   1_455  A
C399        C404   1.399   1_556  A
C399        H405   1.083       .  S
C400        C839   1.402       .  A
C400        C401   1.410   1_556  A
C401        C402   1.396       .  A
C401        H406   1.084       .  S
C402        C843   1.400       .  A
C402        H407   1.083       .  S
C403        C842   1.400   1_455  A
C403        C404   1.411       .  A
C404        H408   1.084       .  S
C409        C410   1.400       .  A
C409        H415   1.083       .  S
C410        C411   1.410   1_556  A
C411        H416   1.083       .  S
C412        C413   1.399   1_545  A
C412        H417   1.083       .  S
C413        C414   1.410       .  A
C414        H418   1.083       .  S
C419        C420   1.407       .  A
C419        C424   1.394   1_554  A
C419        H425   1.082       .  S
C420        C421   1.401       .  A
C421        C422   1.393       .  A
C421        H426   1.083       .  S
C422        C423   1.407   1_554  A
C422        H427   1.082       .  S
C423        C424   1.402       .  A
C424        H428   1.083       .  S
C429        C430   1.351       .  D
C429        H431   1.087       .  S
C430        H432   1.086       .  S
C433        C434   1.334       .  D
C433        H435   1.088       .  S
C434        H436   1.085       .  S
C437        C438   1.341       .  D
C437        H439   1.085       .  S
C438        H440   1.084       .  S
Zn441       O445   1.931       .  S
Zn441       O446   2.072       .  S
Zn441       O450   2.065       .  S
Zn441       O457   2.081       .  S
Zn442       O445   1.855       .  S
Zn442       O447   1.950       .  S
Zn442       O449   1.939       .  S
Zn442       O453   1.957       .  S
Zn443       O445   1.914       .  S
Zn443       O448   2.053       .  S
Zn443       O451   2.071       .  S
Zn443       O454   2.058       .  S
Zn444       O445   1.900       .  S
Zn444       O452   2.033       .  S
Zn444       O455   2.049       .  S
Zn444       O456   2.006       .  S
O446        C458   1.278       .  A
O447        C459   1.263       .  A
O448        C460   1.283       .  A
O449        C458   1.261       .  A
O450        C460   1.284       .  A
O451        C459   1.279       .  A
O452        C461   1.279       .  A
O453        C462   1.263       .  A
O454        C461   1.282       .  A
O455        C462   1.277       .  A
O456        C463   1.276       .  A
O457        C463   1.287       .  A
C458        C630   1.473       .  S
C459        C620   1.478       .  S
C460        C649   1.485       .  S
C461        C657   1.482       .  S
C462        C643   1.474   1_556  S
C463        C653   1.480       .  S
Zn464       O468   1.850       .  S
Zn464       O469   1.973       .  S
Zn464       O473   1.949       .  S
Zn464       O480   1.940       .  S
Zn465       O468   1.895       .  S
Zn465       O470   2.024       .  S
Zn465       O472   2.038       .  S
Zn465       O476   2.000       .  S
Zn466       O468   1.918       .  S
Zn466       O471   2.065       .  S
Zn466       O474   2.046       .  S
Zn466       O477   2.052       .  S
Zn467       O468   1.927       .  S
Zn467       O475   2.060       .  S
Zn467       O478   2.079       .  S
Zn467       O479   2.077       .  S
O469        C481   1.266       .  A
O470        C482   1.277       .  A
O471        C483   1.276       .  A
O472        C481   1.276       .  A
O473        C483   1.262       .  A
O474        C482   1.281       .  A
O475        C484   1.283       .  A
O476        C485   1.275       .  A
O477        C484   1.283       .  A
O478        C485   1.287       .  A
O479        C486   1.277       .  A
O480        C486   1.262       .  A
C481        C588   1.468       .  S
C482        C615   1.476       .  S
C483        C601   1.471       .  S
C484        C611   1.483       .  S
C485        C608   1.479       .  S
C486        C578   1.469       .  S
C487        H488   1.111       .  S
C487        C491   1.549   1_565  S
C489        H490   1.111       .  S
C489        C494   1.538   1_565  S
C491        C494   1.372       .  D
C491        C612   1.497       .  S
C492        C495   1.371       .  D
C492        C607   1.485       .  S
C493        C496   1.377       .  D
C493        C616   1.484       .  S
C494        C654   1.486       .  S
C495        C650   1.498       .  S
C496        C658   1.491       .  S
Zn497       O501   1.928       .  S
Zn497       O502   2.022       .  S
Zn497       O506   2.041       .  S
Zn497       O513   2.022       .  S
Zn498       O501   1.946       .  S
Zn498       O503   2.003       .  S
Zn498       O505   2.016       .  S
Zn498       O509   2.005       .  S
Zn499       O501   1.932       .  S
Zn499       O504   2.012       .  S
Zn499       O507   1.986       .  S
Zn499       O510   1.982       .  S
Zn500       O501   1.948       .  S
Zn500       O508   2.007       .  S
Zn500       O511   1.996       .  S
Zn500       O512   2.014       .  S
O502        C514   1.275       .  A
O503        C515   1.271       .  A
O504        C516   1.273       .  A
O505        C514   1.276       .  A
O506        C516   1.277       .  A
O507        C515   1.270       .  A
O508        C517   1.272       .  A
O509        C518   1.271       .  A
O510        C517   1.270       .  A
O511        C518   1.270       .  A
O512        C519   1.275       .  A
O513        C519   1.275       .  A
C514        C573   1.473       .  S
C515        C591   1.473       .  S
C516        C569   1.476       .  S
C517        C598   1.475       .  S
C518        C581   1.475       .  S
C519        C565   1.470       .  S
Zn520       O524   1.837       .  S
Zn520       O525   1.943       .  S
Zn520       O529   1.941       .  S
Zn520       O536   1.951       .  S
Zn521       O524   1.921       .  S
Zn521       O526   2.051       .  S
Zn521       O528   2.081       .  S
Zn521       O532   2.073       .  S
Zn522       O524   1.912       .  S
Zn522       O527   2.069       .  S
Zn522       O530   2.046       .  S
Zn522       O533   2.044       .  S
Zn523       O524   1.898       .  S
Zn523       O531   2.021       .  S
Zn523       O534   2.002       .  S
Zn523       O535   2.062       .  S
O525        C537   1.261       .  A
O526        C538   1.283       .  A
O527        C539   1.278       .  A
O528        C537   1.279       .  A
O529        C539   1.264       .  A
O530        C538   1.281       .  A
O531        C540   1.277       .  A
O532        C541   1.285       .  A
O533        C540   1.283       .  A
O534        C541   1.278       .  A
O535        C542   1.277       .  A
O536        C542   1.264       .  A
C537        C623   1.478       .  S
C538        C553   1.484       .  S
C539        C640   1.474       .  S
C540        C558   1.475       .  S
C541        C562   1.483       .  S
C542        C633   1.477       .  S
C543        H544   1.111       .  S
C543        C549   1.542       .  S
C543        C768   1.553   1_545  S
C545        H546   1.112       .  S
C545        C771   1.534   1_545  S
C545        C552   1.542       .  S
C547        C550   1.379       .  D
C547        C557   1.480       .  S
C548        C763   1.536       .  S
C548        C551   1.379       .  D
C548        C561   1.481       .  S
C549        C552   1.381       .  D
C549        C554   1.490       .  S
C550        C566   1.487       .  S
C551        C765   1.538       .  S
C551        C574   1.490       .  S
C552        C570   1.495       .  S
C553        C554   1.348       .  D
C553        H555   1.085       .  S
C554        H556   1.084       .  S
C557        C558   1.340       .  D
C557        H559   1.086       .  S
C558        H560   1.087       .  S
C561        C562   1.350       .  D
C561        H563   1.087       .  S
C562        H564   1.087       .  S
C565        C566   1.344       .  D
C565        H567   1.083       .  S
C566        H568   1.087       .  S
C569        C570   1.348       .  D
C569        H571   1.082       .  S
C570        H572   1.085       .  S
C573        C574   1.344       .  D
C573        H575   1.080       .  S
C574        H576   1.085       .  S
C577        C578   1.404       .  A
C577        C802   1.393       .  A
C577        H583   1.084       .  S
C578        C579   1.402   1_545  A
C579        C800   1.400       .  A
C579        H584   1.083       .  S
C580        C799   1.398       .  A
C580        C581   1.408       .  A
C580        H585   1.083       .  S
C581        C582   1.402       .  A
C582        C797   1.394       .  A
C582        H586   1.083       .  S
C587        C588   1.401       .  A
C587        H593   1.082   1_655  S
C588        C589   1.406       .  A
C589        H594   1.083       .  S
C590        C591   1.405       .  A
C590        H595   1.082       .  S
C591        C592   1.406       .  A
C592        H596   1.084       .  S
C597        C598   1.403       .  A
C597        C602   1.392       .  A
C597        H603   1.084       .  S
C598        C599   1.408       .  A
C599        C600   1.399       .  A
C599        H604   1.083       .  S
C600        C601   1.403       .  A
C600        H605   1.084       .  S
C601        C602   1.405       .  A
C602        H606   1.083       .  S
C607        C608   1.336       .  D
C607        H609   1.086       .  S
C608        H610   1.087       .  S
C611        C612   1.352       .  D
C611        H613   1.085       .  S
C612        H614   1.085       .  S
C615        C616   1.343       .  D
C615        H617   1.084       .  S
C616        H618   1.084       .  S
C619        C624   1.395   1_556  A
C619        H625   1.083       .  S
C620        C621   1.411   1_556  A
C621        C622   1.398       .  A
C621        H626   1.084       .  S
C622        H627   1.083       .  S
C623        C624   1.411       .  A
C624        H628   1.084       .  S
C629        C630   1.400   1_564  A
C629        C854   1.396       .  A
C629        H635   1.083   1_554  S
C630        C631   1.409   1_556  A
C631        C852   1.394       .  A
C631        H636   1.083       .  S
C632        C851   1.395       .  A
C632        C633   1.400       .  A
C632        H637   1.083       .  S
C633        C634   1.410       .  A
C634        C849   1.397   1_554  A
C634        H638   1.082       .  S
C639        C640   1.409       .  A
C639        C644   1.391       .  A
C639        H645   1.083       .  S
C640        C641   1.402       .  A
C641        C642   1.399       .  A
C641        H646   1.082       .  S
C642        C643   1.410       .  A
C642        H647   1.084       .  S
C643        C644   1.399       .  A
C644        H648   1.082   1_554  S
C649        C650   1.351       .  D
C649        H651   1.086       .  S
C650        H652   1.085       .  S
C653        C654   1.336       .  D
C653        H655   1.090       .  S
C654        H656   1.088       .  S
C657        C658   1.346       .  D
C657        H659   1.084       .  S
C658        H660   1.084       .  S
Zn661       O665   1.927       .  S
Zn661       O666   2.074       .  S
Zn661       O670   2.069       .  S
Zn661       O677   2.085       .  S
Zn662       O665   1.852       .  S
Zn662       O667   1.947       .  S
Zn662       O669   1.943       .  S
Zn662       O673   1.957       .  S
Zn663       O665   1.919       .  S
Zn663       O668   2.060       .  S
Zn663       O671   2.084       .  S
Zn663       O674   2.059       .  S
Zn664       O665   1.900       .  S
Zn664       O672   2.004       .  S
Zn664       O675   2.030       .  S
Zn664       O676   1.976       .  S
O666        C678   1.279       .  A
O667        C679   1.262       .  A
O668        C680   1.284       .  A
O669        C678   1.263       .  A
O670        C680   1.285       .  A
O671        C679   1.279       .  A
O672        C681   1.275       .  A
O673        C682   1.264       .  A
O674        C681   1.283       .  A
O675        C682   1.273       .  A
O676        C683   1.271       .  A
O677        C683   1.286       .  A
C678        C850   1.476       .  S
C679        C840   1.481       .  S
C680        C869   1.487       .  S
C681        C877   1.474       .  S
C682        C863   1.470       .  S
C683        C873   1.475       .  S
Zn684       O688   1.851       .  S
Zn684       O689   1.968       .  S
Zn684       O693   1.951       .  S
Zn684       O700   1.945       .  S
Zn685       O688   1.899       .  S
Zn685       O690   2.019       .  S
Zn685       O692   2.043       .  S
Zn685       O696   2.003       .  S
Zn686       O688   1.920       .  S
Zn686       O691   2.077       .  S
Zn686       O694   2.068       .  S
Zn686       O697   2.066       .  S
Zn687       O688   1.930       .  S
Zn687       O695   2.071       .  S
Zn687       O698   2.083       .  S
Zn687       O699   2.076       .  S
O689        C701   1.265       .  A
O690        C702   1.277       .  A
O691        C703   1.278       .  A
O692        C701   1.276       .  A
O693        C703   1.263       .  A
O694        C702   1.284       .  A
O695        C704   1.285       .  A
O696        C705   1.275       .  A
O697        C704   1.285       .  A
O698        C705   1.287       .  A
O699        C706   1.278       .  A
O700        C706   1.262       .  A
C701        C808   1.469       .  S
C702        C835   1.480       .  S
C703        C821   1.476       .  S
C704        C831   1.490       .  S
C705        C828   1.482       .  S
C706        C798   1.471       .  S
C707        H708   1.111       .  S
C707        C711   1.549       .  S
C709        H710   1.111       .  S
C709        C714   1.540       .  S
C711        C714   1.371       .  D
C711        C832   1.502       .  S
C712        C715   1.372       .  D
C712        C827   1.485       .  S
C713        C716   1.379       .  D
C713        C836   1.491       .  S
C714        C874   1.481       .  S
C715        C870   1.498       .  S
C716        C878   1.485       .  S
Zn717       O721   1.929       .  S
Zn717       O722   2.021       .  S
Zn717       O726   2.052       .  S
Zn717       O733   2.030       .  S
Zn718       O721   1.950       .  S
Zn718       O723   2.000       .  S
Zn718       O725   2.014       .  S
Zn718       O729   2.007       .  S
Zn719       O721   1.933       .  S
Zn719       O724   2.010       .  S
Zn719       O727   1.983       .  S
Zn719       O730   1.984       .  S
Zn720       O721   1.945       .  S
Zn720       O728   2.012       .  S
Zn720       O731   1.996       .  S
Zn720       O732   2.027       .  S
O722        C734   1.274       .  A
O723        C735   1.271       .  A
O724        C736   1.273       .  A
O725        C734   1.276       .  A
O726        C736   1.278       .  A
O727        C735   1.270       .  A
O728        C737   1.273       .  A
O729        C738   1.271       .  A
O730        C737   1.270       .  A
O731        C738   1.271       .  A
O732        C739   1.276       .  A
O733        C739   1.277       .  A
C734        C793   1.471       .  S
C735        C811   1.473       .  S
C736        C789   1.478       .  S
C737        C818   1.476       .  S
C738        C801   1.477       .  S
C739        C785   1.475       .  S
Zn740       O744   1.853       .  S
Zn740       O745   1.950       .  S
Zn740       O749   1.955       .  S
Zn740       O756   1.944       .  S
Zn741       O744   1.911       .  S
Zn741       O746   2.064       .  S
Zn741       O748   2.075       .  S
Zn741       O752   2.064       .  S
Zn742       O744   1.901       .  S
Zn742       O747   2.032       .  S
Zn742       O750   2.020       .  S
Zn742       O753   1.998       .  S
Zn743       O744   1.923       .  S
Zn743       O751   2.089       .  S
Zn743       O754   2.073       .  S
Zn743       O755   2.065       .  S
O745        C757   1.263       .  A
O746        C758   1.285       .  A
O747        C759   1.273       .  A
O748        C757   1.279       .  A
O749        C759   1.263       .  A
O750        C758   1.278       .  A
O751        C760   1.287       .  A
O752        C761   1.284       .  A
O753        C760   1.275       .  A
O754        C761   1.286       .  A
O755        C762   1.278       .  A
O756        C762   1.262       .  A
C757        C843   1.479       .  S
C758        C773   1.479       .  S
C759        C860   1.470       .  S
C760        C778   1.482       .  S
C761        C782   1.492       .  S
C762        C853   1.473       .  S
C763        H764   1.112       .  S
C763        C769   1.541       .  S
C765        H766   1.112       .  S
C765        C772   1.539       .  S
C767        C770   1.372       .  D
C767        C777   1.487       .  S
C768        C771   1.382       .  D
C768        C781   1.500       .  S
C769        C772   1.379       .  D
C769        C774   1.486       .  S
C770        C786   1.491       .  S
C771        C794   1.487       .  S
C772        C790   1.498       .  S
C773        C774   1.344       .  D
C773        H775   1.087       .  S
C774        H776   1.086       .  S
C777        C778   1.336       .  D
C777        H779   1.086       .  S
C778        H780   1.088       .  S
C781        C782   1.353       .  D
C781        H783   1.085       .  S
C782        H784   1.085       .  S
C785        C786   1.348       .  D
C785        H787   1.082       .  S
C786        H788   1.086       .  S
C789        C790   1.349       .  D
C789        H791   1.083       .  S
C790        H792   1.087       .  S
C793        C794   1.341       .  D
C793        H795   1.083       .  S
C794        H796   1.087       .  S
C797        C798   1.407       .  A
C797        H803   1.083       .  S
C798        C799   1.401       .  A
C799        H804   1.083       .  S
C800        C801   1.409       .  A
C800        H805   1.083       .  S
C801        C802   1.403   1_565  A
C802        H806   1.083       .  S
C807        C808   1.401   1_455  A
C807        H813   1.082       .  S
C808        C809   1.406       .  A
C809        H814   1.084       .  S
C810        C811   1.404       .  A
C810        H815   1.082       .  S
C811        C812   1.406       .  A
C812        H816   1.084       .  S
C817        C818   1.403       .  A
C817        C822   1.394       .  A
C817        H823   1.084       .  S
C818        C819   1.408       .  A
C819        C820   1.399       .  A
C819        H824   1.083       .  S
C820        C821   1.403       .  A
C820        H825   1.084       .  S
C821        C822   1.407       .  A
C822        H826   1.083       .  S
C827        C828   1.338       .  D
C827        H829   1.086       .  S
C828        H830   1.088       .  S
C831        C832   1.354       .  D
C831        H833   1.086       .  S
C832        H834   1.086       .  S
C835        C836   1.344       .  D
C835        H837   1.085       .  S
C836        H838   1.085       .  S
C839        C844   1.399   1_556  A
C839        H845   1.083       .  S
C840        C841   1.410   1_556  A
C841        C842   1.396       .  A
C841        H846   1.084       .  S
C842        H847   1.083       .  S
C843        C844   1.411       .  A
C844        H848   1.084       .  S
C849        C850   1.400       .  A
C849        H855   1.083       .  S
C850        C851   1.410   1_556  A
C851        H856   1.083       .  S
C852        C853   1.400   1_545  A
C852        H857   1.083       .  S
C853        C854   1.410       .  A
C854        H858   1.083       .  S
C859        C860   1.407       .  A
C859        C864   1.393   1_554  A
C859        H865   1.082       .  S
C860        C861   1.402       .  A
C861        C862   1.393       .  A
C861        H866   1.083       .  S
C862        C863   1.407   1_554  A
C862        H867   1.082       .  S
C863        C864   1.402       .  A
C864        H868   1.083       .  S
C869        C870   1.351       .  D
C869        H871   1.087       .  S
C870        H872   1.086       .  S
C873        C874   1.334       .  D
C873        H875   1.088       .  S
C874        H876   1.086       .  S
C877        C878   1.341       .  D
C877        H879   1.085       .  S
C878        H880   1.085       .  S
