geometry optimzed in LAMMPS
_audit_creation_date              2020-12-01 
_audit_creation_method            'lammps2cif' 
_symmetry_space_group_name_H-M    'P1' 
_symmetry_Int_Tables_number       1 
_symmetry_cell_setting            triclinic 
loop_ 
_symmetry_equiv_pos_as_xyz 
  x,y,z 
_cell_length_a                    34.54381976 
_cell_length_b                    34.393966126830385 
_cell_length_c                    34.338237005913115 
_cell_angle_alpha                 90.11585585037375 
_cell_angle_beta                  90.03628839716325 
_cell_angle_gamma                 89.77506445622213 
loop_ 
_atom_site_label 
_atom_site_type_symbol 
_atom_site_fract_x 
_atom_site_fract_y 
_atom_site_fract_z 
_atom_site_charge 
O1          O  0.23333389  0.96010231  0.14685756    -0.85600
O2          O  0.19785070  0.98548033  0.21161202    -0.82600
C3          C  0.20689458  0.95869513  0.23491716     0.97900
O4          O  0.24075726  0.95698336  0.24915287    -0.82700
O5          O  0.32176073  0.96735033  0.24899238    -0.85300
C6          C  0.33463355  0.94351289  0.22373437     1.02400
O7          O  0.32677172  0.94778029  0.18828606    -0.78100
O8          O  0.29069212  0.97051892  0.12230275    -0.78300
C9          C  0.26050395  0.94980018  0.12474813     1.02400
O10         O  0.25039241  0.03826778  0.12434227    -0.85600
O11         O  0.22266124  0.06247797  0.19553137    -0.82600
C12         C  0.21214965  0.06182662  0.23057343     0.97900
O13         O  0.22917229  0.03934160  0.25442180    -0.82700
O14         O  0.30960693  0.05042759  0.24727661    -0.85300
C15         C  0.34178858  0.05182038  0.22966825     1.02400
O16         O  0.35071153  0.02615332  0.20480720    -0.78100
O17         O  0.30864692  0.05183471  0.14393105    -0.78200
C18         C  0.27920108  0.06057886  0.12446059     1.02300
Cr19       Cr  0.22925688  0.01130536  0.17104566     1.93700
Cr20       Cr  0.27555856  0.00370050  0.24652984     1.93200
Cr21       Cr  0.31612851  0.99948188  0.16664947     1.39100
O22         O  0.27371913  0.00446435  0.19492906    -1.23300
O23         O  0.77902937  0.04247999  0.14523277    -0.85600
O24         O  0.81801935  0.01648810  0.20831267    -0.82600
C25         C  0.80946436  0.04486865  0.22967090     0.97900
O26         O  0.77563677  0.04744058  0.24422008    -0.82700
O27         O  0.69404202  0.03782160  0.24529929    -0.85300
C28         C  0.67905650  0.05947841  0.21922363     1.02400
O29         O  0.68518213  0.05236639  0.18376187    -0.78100
O30         O  0.72332301  0.02807990  0.11923649    -0.78300
C31         C  0.75090081  0.05182880  0.12402050     1.02400
O32         O  0.76375936  0.96409800  0.12254895    -0.85600
O33         O  0.79354597  0.94025932  0.19362681    -0.82600
C34         C  0.80151126  0.94045171  0.22950463     0.97900
O35         O  0.78531706  0.96473614  0.25222470    -0.82700
O36         O  0.70544418  0.95344013  0.24652715    -0.85300
C37         C  0.67361100  0.95016091  0.22832690     1.02400
O38         O  0.66444871  0.97535572  0.20340046    -0.78100
O39         O  0.70776124  0.94632714  0.14352044    -0.78200
C40         C  0.73850961  0.93810962  0.12560160     1.02300
Cr41       Cr  0.78550653  0.99110301  0.16861390     1.93700
Cr42       Cr  0.73974871  0.00068391  0.24383727     1.93200
Cr43       Cr  0.69826169  0.00010753  0.16410380     1.39100
O44         O  0.74102317  0.99761458  0.19257906    -1.23300
O45         O  0.14823022  0.23204234  0.94701009    -0.85600
O46         O  0.21340388  0.19204208  0.95970347    -0.82600
C47         C  0.23631140  0.20341771  0.93361470     0.97900
O48         O  0.25171927  0.23664416  0.93542164    -0.82700
O49         O  0.25140902  0.31547710  0.95217651    -0.85300
C50         C  0.22402672  0.32967811  0.93178821     1.02400
O51         O  0.18934814  0.32236419  0.93983558    -0.78100
O52         O  0.12594981  0.28689811  0.96957270    -0.78300
C53         C  0.12644241  0.26104549  0.94349202     1.02400
O54         O  0.13733838  0.23992691  0.03128713    -0.85600
O55         O  0.20751082  0.20437376  0.04087472    -0.82600
C56         C  0.24335259  0.19811431  0.03841623     0.97900
O57         O  0.26426089  0.21786546  0.01552116    -0.82700
O58         O  0.25820336  0.29743199  0.03478798    -0.85300
C59         C  0.24315866  0.33089895  0.03792412     1.02400
O60         O  0.21623311  0.34120809  0.01539211    -0.78100
O61         O  0.15858966  0.29780058  0.04689338    -0.78200
C62         C  0.14148799  0.26694124  0.05600736     1.02300
Cr63       Cr  0.17791035  0.22041867  0.99457323     1.93700
Cr64       Cr  0.25287849  0.26699714  0.98519282     1.93200
Cr65       Cr  0.17435336  0.30880527  0.99293564     1.39100
O66         O  0.20199654  0.26522659  0.99097765    -1.23300
O67         O  0.14805411  0.77648686  0.03756233    -0.85600
O68         O  0.20737187  0.81804057  0.00893044    -0.82600
C69         C  0.23126019  0.81039809  0.03542070     0.97900
O70         O  0.24708351  0.77704641  0.03696256    -0.82700
O71         O  0.25150821  0.69554709  0.02754557    -0.85300
C72         C  0.22759526  0.67926219  0.05041595     1.02400
O73         O  0.19177494  0.68423218  0.04571954    -0.78100
O74         O  0.12482130  0.71906040  0.02474415    -0.78300
C75         C  0.12950153  0.74708345  0.04824951     1.02400
O76         O  0.12272627  0.75929298  0.96018361    -0.85600
O77         O  0.19037381  0.79300797  0.93317559    -0.82600
C78         C  0.22552672  0.80267446  0.93120370     0.97900
O79         O  0.25007137  0.78683692  0.95383129    -0.82700
O80         O  0.24864742  0.70580379  0.94378013    -0.85300
C81         C  0.23384371  0.67214478  0.94314845     1.02400
O82         O  0.20823297  0.66286240  0.96758418    -0.78100
O83         O  0.14527597  0.70326979  0.94228455    -0.78200
C84         C  0.12607027  0.73338602  0.93451519     1.02300
Cr85       Cr  0.16848231  0.78356227  0.98512238     1.93700
Cr86       Cr  0.24590315  0.74095983  0.99046488     1.93200
Cr87       Cr  0.16896951  0.69558183  0.99457709     1.39100
O88         O  0.19484554  0.73988141  0.99012737    -1.23300
O89         O  0.05379638  0.14677968  0.76172565    -0.85600
O90         O  0.02523220  0.20636029  0.80598515    -0.82600
C91         C  0.04643141  0.23554331  0.80081105     0.97900
O92         O  0.04979435  0.25013027  0.76706595    -0.82700
O93         O  0.04270402  0.25218709  0.68470516    -0.85300
C94         C  0.06517671  0.22766542  0.66808084     1.02400
O95         O  0.05944879  0.19174131  0.67173394    -0.78100
O96         O  0.03655954  0.12429444  0.70495962    -0.78300
C97         C  0.06179507  0.12760872  0.73146382     1.02400
O98         O  0.97515736  0.12307999  0.74555597    -0.85600
O99         O  0.94961229  0.18971218  0.78326921    -0.82600
C100        C  0.94680720  0.22535886  0.79203056     0.97900
O101        O  0.96808659  0.25041412  0.77540551    -0.82700
O102        O  0.95855483  0.24910980  0.69508076    -0.85300
C103        C  0.95694337  0.23449973  0.66136538     1.02400
O104        O  0.98258691  0.21066591  0.65070355    -0.78100
O105        O  0.95561804  0.14812607  0.69121081    -0.78200
C106        C  0.94874130  0.12743920  0.72053770     1.02300
Cr107      Cr  0.00132284  0.16792185  0.77102896     1.93700
Cr108      Cr  0.00487921  0.24687239  0.72982125     1.93200
Cr109      Cr  0.00816970  0.17021100  0.68297766     1.39100
O110        O  0.00519325  0.19554442  0.72806277    -1.23300
O111        O  0.96074180  0.15361495  0.22273813    -0.85600
O112        O  0.99058255  0.21482116  0.18295251    -0.82600
C113        C  0.96802499  0.24288945  0.18959063     0.97900
O114        O  0.96505184  0.25640056  0.22388187    -0.82700
O115        O  0.97230368  0.25640120  0.30574262    -0.85300
C116        C  0.94855059  0.23219079  0.31999300     1.02400
O117        O  0.95260327  0.19635452  0.31392256    -0.78100
O118        O  0.97285058  0.12882152  0.27995627    -0.78300
C119        C  0.95060291  0.13241423  0.25082372     1.02400
O120        O  0.03770404  0.12718504  0.24020725    -0.85600
O121        O  0.06582092  0.19505474  0.20749040    -0.82600
C122        C  0.06999020  0.23097235  0.20106088     0.97900
O123        O  0.04750962  0.25554854  0.21692751    -0.82700
O124        O  0.05580621  0.25063762  0.29652852    -0.85300
C125        C  0.05562082  0.23493466  0.32971633     1.02400
O126        O  0.02963971  0.21086817  0.33850876    -0.78100
O127        O  0.05472277  0.14816869  0.29710035    -0.78200
C128        C  0.06239915  0.12841076  0.26725841     1.02300
Cr129      Cr  0.01338648  0.17414783  0.21654533     1.93700
Cr130      Cr  0.00994144  0.25109947  0.26112438     1.93200
Cr131      Cr  0.00304491  0.17273424  0.30413437     1.39100
O132        O  0.00855158  0.19972171  0.26057784    -1.23300
O133        O  0.03959657  0.87732123  0.23587739    -0.85600
O134        O  0.06405639  0.80562964  0.20618012    -0.82600
C135        C  0.06368771  0.76969957  0.19823400     0.97900
O136        O  0.03845295  0.74753136  0.21324056    -0.82700
O137        O  0.04760963  0.75069049  0.29246857    -0.85300
C138        C  0.05312913  0.76891981  0.32399094     1.02400
O139        O  0.03017261  0.79551899  0.33443459    -0.78100
O140        O  0.05753606  0.85571100  0.29182976    -0.78300
C141        C  0.06524902  0.87474414  0.26164705     1.02400
O142        O  0.96222775  0.85478120  0.21909367    -0.85600
O143        O  0.98877995  0.79202881  0.17959759    -0.82600
C144        C  0.96025394  0.77081591  0.18691500     0.97900
O145        O  0.95597147  0.75691116  0.22089701    -0.82700
O146        O  0.96415751  0.75398764  0.30306898    -0.85300
C147        C  0.94442641  0.78037671  0.31992657     1.02400
O148        O  0.95259453  0.81566261  0.31519487    -0.78100
O149        O  0.97561698  0.87937730  0.27623298    -0.78200
C150        C  0.95221153  0.87473410  0.24811519     1.02300
Cr151      Cr  0.01337779  0.83118873  0.21338675     1.93700
Cr152      Cr  0.00164622  0.75570163  0.25787704     1.93200
Cr153      Cr  0.00428320  0.83487264  0.30123778     1.39100
O154        O  0.00610916  0.80684940  0.25779538    -1.23300
O155        O  0.87579835  0.75949355  0.95290148    -0.85600
O156        O  0.80436221  0.78953037  0.93278047    -0.82600
C157        C  0.76885393  0.79787905  0.93358336     0.97900
O158        O  0.74674377  0.78125717  0.95782332    -0.82700
O159        O  0.75512024  0.70195061  0.94145798    -0.85300
C160        C  0.77204736  0.66940132  0.93849057     1.02400
O161        O  0.79630774  0.65887301  0.96403285    -0.78100
O162        O  0.85809242  0.70007408  0.93958140    -0.78300
C163        C  0.87705722  0.72994096  0.93100122     1.02400
O164        O  0.85585146  0.77342350  0.03327630    -0.85600
O165        O  0.79040249  0.80942300  0.01265178    -0.82600
C166        C  0.76809403  0.79834442  0.03963460     0.97900
O167        O  0.75406312  0.76440572  0.03924726    -0.82700
O168        O  0.75340614  0.68447870  0.02346450    -0.85300
C169        C  0.77834251  0.67038571  0.04669297     1.02400
O170        O  0.81342037  0.67921281  0.04327978    -0.78100
O171        O  0.87927175  0.71544942  0.02168414    -0.78200
C172        C  0.87710478  0.74540059  0.04313417     1.02300
Cr173      Cr  0.83021685  0.77965681  0.98305438     1.93700
Cr174      Cr  0.75579922  0.73289276  0.99030266     1.93200
Cr175      Cr  0.83496320  0.69162408  0.99182473     1.39100
O176        O  0.80700112  0.73468388  0.98855792    -1.23300
O177        O  0.22504398  0.05225895  0.82363341    -0.85600
O178        O  0.19150178  0.02194662  0.75957259    -0.82600
C179        C  0.20297894  0.04627410  0.73499499     0.97900
O180        O  0.23814386  0.04730552  0.72482545    -0.82700
O181        O  0.31806663  0.03448224  0.73052424    -0.85300
C182        C  0.33120045  0.05830650  0.75558097     1.02400
O183        O  0.32285111  0.05439622  0.79099718    -0.78100
O184        O  0.27931087  0.03975232  0.85402724    -0.78300
C185        C  0.25119477  0.06268195  0.84680193     1.02400
O186        O  0.23650122  0.97591205  0.85433821    -0.85600
O187        O  0.21189363  0.94653256  0.78354147    -0.82600
C188        C  0.20543169  0.94398207  0.74751342     0.97900
O189        O  0.22445976  0.96460387  0.72357640    -0.82700
O190        O  0.30290858  0.95183305  0.73543493    -0.85300
C191        C  0.33369292  0.94876577  0.75508328     1.02400
O192        O  0.34191666  0.97386895  0.78073107    -0.78100
O193        O  0.29358458  0.95489550  0.83977279    -0.78200
C194        C  0.26148466  0.94930381  0.85597680     1.02300
Cr195      Cr  0.21951220  0.99919444  0.80418449     1.93700
Cr196      Cr  0.27094888  0.99963698  0.73209845     1.93200
Cr197      Cr  0.30648821  0.00530984  0.81452390     1.39100
O198        O  0.26589830  0.00162899  0.78328297    -1.23300
O199        O  0.95832185  0.84953543  0.75977725    -0.85600
O200        O  0.98786523  0.78796871  0.79897860    -0.82600
C201        C  0.96479234  0.76051440  0.79190219     0.97900
O202        O  0.96231077  0.74669638  0.75767755    -0.82700
O203        O  0.97037752  0.74569634  0.67597721    -0.85300
C204        C  0.94566231  0.76955437  0.66237235     1.02400
O205        O  0.94907691  0.80538636  0.66869224    -0.78100
O206        O  0.96932157  0.87337015  0.70214803    -0.78300
C207        C  0.94744138  0.87018922  0.73164325     1.02400
O208        O  0.03511622  0.87518149  0.74136995    -0.85600
O209        O  0.06303271  0.80709848  0.77331927    -0.82600
C210        C  0.06581462  0.77182736  0.78282331     0.97900
O211        O  0.04432697  0.74687052  0.76639855    -0.82700
O212        O  0.05391946  0.75200818  0.68602144    -0.85300
C213        C  0.05330596  0.76725101  0.65255127     1.02400
O214        O  0.02650641  0.79062279  0.64343782    -0.78100
O215        O  0.05089372  0.85400332  0.68387337    -0.78200
C216        C  0.05845688  0.87460129  0.71313563     1.02300
Cr217      Cr  0.01080287  0.82846288  0.76520013     1.93700
Cr218      Cr  0.00763037  0.75134652  0.72106721     1.93200
Cr219      Cr  0.99951059  0.82919887  0.67769157     1.39100
O220        O  0.00566673  0.80269463  0.72135881    -1.23300
O221        O  0.87592222  0.24167535  0.03319309    -0.85600
O222        O  0.80483971  0.21198648  0.05596788    -0.82600
C223        C  0.76975506  0.20197839  0.05458695     0.97900
O224        O  0.74753156  0.21633921  0.02887481    -0.82700
O225        O  0.75203142  0.29617758  0.03815237    -0.85300
C226        C  0.76861008  0.32878717  0.04035533     1.02400
O227        O  0.79270399  0.33857621  0.01447392    -0.78100
O228        O  0.85484790  0.30051096  0.04367446    -0.78300
C229        C  0.87531564  0.27206413  0.05386919     1.02400
O230        O  0.85660480  0.22027798  0.95438284    -0.85600
O231        O  0.79242105  0.18400562  0.97936326    -0.82600
C232        C  0.77036030  0.19075889  0.95088953     0.97900
O233        O  0.75613489  0.22457380  0.94639949    -0.82700
O234        O  0.75229009  0.30661905  0.95444976    -0.85300
C235        C  0.77751591  0.32070053  0.93156016     1.02400
O236        O  0.81281231  0.31375552  0.93726818    -0.78100
O237        O  0.87847011  0.27916744  0.96330554    -0.78200
C238        C  0.87611206  0.24869114  0.94252961     1.02300
Cr239      Cr  0.83112269  0.21769089  0.00525937     1.93700
Cr240      Cr  0.75535766  0.26135384  0.99208040     1.93200
Cr241      Cr  0.83305623  0.30483049  0.99014833     1.39100
O242        O  0.80642276  0.26136299  0.99550841    -1.23300
O243        O  0.77431939  0.94978422  0.82995279    -0.85600
O244        O  0.81422098  0.98220456  0.77027847    -0.82600
C245        C  0.80562488  0.95737107  0.74489541     0.97900
O246        O  0.77191827  0.95672344  0.73021327    -0.82700
O247        O  0.69051697  0.96741539  0.72898515    -0.85300
C248        C  0.67541758  0.94366834  0.75305939     1.02400
O249        O  0.68195767  0.94681090  0.78895655    -0.78100
O250        O  0.71830154  0.96410645  0.85606781    -0.78300
C251        C  0.74581181  0.94016052  0.85051693     1.02400
O252        O  0.75843208  0.02627872  0.86041102    -0.85600
O253        O  0.78940037  0.05680660  0.79317868    -0.82600
C254        C  0.79974579  0.06015610  0.75817716     0.97900
O255        O  0.78339733  0.03964706  0.73200790    -0.82700
O256        O  0.70337149  0.05092298  0.73630694    -0.85300
C257        C  0.67048476  0.05161438  0.75243003     1.02400
O258        O  0.66097277  0.02555284  0.77634049    -0.78100
O259        O  0.70327288  0.04767246  0.83982105    -0.78200
C260        C  0.73290656  0.05259614  0.86049938     1.02300
Cr261      Cr  0.78111002  0.00367562  0.81206322     1.93700
Cr262      Cr  0.73696924  0.00354455  0.73514494     1.93200
Cr263      Cr  0.69413954  0.99655405  0.81369341     1.39100
O264        O  0.73725639  0.00097222  0.78650111    -1.23300
O265        O  0.55441372  0.28061351  0.33745963    -0.85600
O266        O  0.52331466  0.31575558  0.27352819    -0.82600
C267        C  0.54804008  0.30537703  0.24862744     0.97900
O268        O  0.55013762  0.27021153  0.23798591    -0.82700
O269        O  0.54109962  0.18943141  0.24180929    -0.85300
C270        C  0.56419321  0.17534750  0.26717865     1.02400
O271        O  0.55934572  0.18295107  0.30272966    -0.78100
O272        O  0.54106131  0.22567034  0.36641323    -0.78300
C273        C  0.56440309  0.25325428  0.35968615     1.02400
O274        O  0.47839144  0.26660610  0.36729860    -0.85600
O275        O  0.44883121  0.29033408  0.29747532    -0.82600
C276        C  0.44528149  0.29861969  0.26208687     0.97900
O277        O  0.46672911  0.28147267  0.23707548    -0.82700
O278        O  0.45782216  0.20092327  0.24581964    -0.85300
C279        C  0.45593480  0.16965489  0.26506571     1.02400
O280        O  0.48054570  0.16204039  0.29112095    -0.78100
O281        O  0.45828472  0.20985516  0.35002752    -0.78200
C282        C  0.45251761  0.24099319  0.36838806     1.02300
Cr283      Cr  0.50147235  0.28523243  0.31760679     1.93700
Cr284      Cr  0.50398699  0.23546483  0.24411352     1.93200
Cr285      Cr  0.50943769  0.19807931  0.32574008     1.39100
O286        O  0.50550251  0.23929358  0.29539947    -1.23300
O287        O  0.34693386  0.54861797  0.26127580    -0.85600
O288        O  0.28421576  0.51899154  0.29864174    -0.82600
C289        C  0.25769131  0.54236633  0.28908276     0.97900
O290        O  0.24559474  0.54380734  0.25429220    -0.82700
O291        O  0.24852672  0.53429162  0.17333156    -0.85300
C292        C  0.27294120  0.55885482  0.16041359     1.02400
O293        O  0.30852786  0.55456798  0.16722347    -0.78100
O294        O  0.37401258  0.53448578  0.20547284    -0.78300
C295        C  0.36880933  0.55801652  0.23353992     1.02400
O296        O  0.37431379  0.47139301  0.24516973    -0.85600
O297        O  0.30626395  0.44304922  0.27411121    -0.82600
C298        C  0.27120819  0.44056339  0.28347681     0.97900
O299        O  0.24606141  0.46124014  0.26598429    -0.82700
O300        O  0.25473670  0.45003204  0.18586285    -0.85300
C301        C  0.27184636  0.44941511  0.15337117     1.02400
O302        O  0.29463148  0.47651908  0.14432767    -0.78100
O303        O  0.35504732  0.45184668  0.18865577    -0.78200
C304        C  0.37295742  0.44494044  0.21972427     1.02300
Cr305      Cr  0.32666539  0.49570300  0.26693764     1.93700
Cr306      Cr  0.25203170  0.49736578  0.21948419     1.93200
Cr307      Cr  0.33148131  0.50393568  0.17937702     1.39100
O308        O  0.30298171  0.49969073  0.22193123    -1.23300
O309        O  0.26936820  0.36040500  0.54130617    -0.85600
O310        O  0.31464037  0.30076909  0.51736368    -0.82600
C311        C  0.30705079  0.27478287  0.54184542     0.97900
O312        O  0.27442745  0.25798804  0.54173610    -0.82700
O313        O  0.19365341  0.25389515  0.53058644    -0.85300
C314        C  0.17675469  0.27904392  0.55217102     1.02400
O315        O  0.18155406  0.31478277  0.54627282    -0.78100
O316        O  0.21325898  0.38256462  0.52249987    -0.78300
C317        C  0.23973350  0.38059937  0.54793160     1.02400
O318        O  0.25577294  0.38133586  0.46093202    -0.85600
O319        O  0.29486797  0.31468449  0.43945251    -0.82600
C320        C  0.30439845  0.27923680  0.43819206     0.97900
O321        O  0.28727173  0.25438839  0.45939769    -0.82700
O322        O  0.20725349  0.25470292  0.44632586    -0.85300
C323        C  0.17331077  0.26849554  0.44475060     1.02400
O324        O  0.16237530  0.29340571  0.46936473    -0.78100
O325        O  0.20215364  0.35571815  0.44115403    -0.78200
C326        C  0.23140675  0.37612532  0.43401982     1.02300
Cr327      Cr  0.28059209  0.33777704  0.48991748     1.93700
Cr328      Cr  0.24012452  0.25870640  0.49431628     1.93200
Cr329      Cr  0.19312765  0.33515314  0.49447236     1.39100
O330        O  0.23805384  0.31003919  0.49308619    -1.23300
O331        O  0.27171041  0.64616434  0.43873249    -0.85600
O332        O  0.31487346  0.70606734  0.46610867    -0.82600
C333        C  0.30678289  0.73151830  0.44111905     0.97900
O334        O  0.27363936  0.74746091  0.44099284    -0.82700
O335        O  0.19295487  0.75029166  0.45155812    -0.85300
C336        C  0.17706576  0.72539316  0.42908169     1.02400
O337        O  0.18208774  0.68965971  0.43464133    -0.78100
O338        O  0.21595456  0.62248513  0.45613061    -0.78300
C339        C  0.24239053  0.62612625  0.43082217     1.02400
O340        O  0.25748873  0.62175228  0.51814096    -0.85600
O341        O  0.29325398  0.68864678  0.54284608    -0.82600
C342        C  0.30223704  0.72408080  0.54564382     0.97900
O343        O  0.28579309  0.74923501  0.52397914    -0.82700
O344        O  0.20540590  0.74812431  0.53576744    -0.85300
C345        C  0.17181050  0.73361078  0.53708674     1.02400
O346        O  0.16179833  0.70847133  0.51228189    -0.78100
O347        O  0.20322602  0.64594743  0.53832279    -0.78200
C348        C  0.23275713  0.62555204  0.54495411     1.02300
Cr349      Cr  0.28129738  0.66710483  0.49125534     1.93700
Cr350      Cr  0.23907408  0.74536385  0.48816379     1.93200
Cr351      Cr  0.19393466  0.66815744  0.48578221     1.39100
O352        O  0.23807972  0.69404856  0.48827718    -1.23300
O353        O  0.35190380  0.45479422  0.72457928    -0.85600
O354        O  0.29037045  0.48210347  0.68338333    -0.82600
C355        C  0.26205398  0.46038871  0.69111684     0.97900
O356        O  0.24760998  0.45955415  0.72498809    -0.82700
O357        O  0.24583189  0.46957645  0.80569340    -0.85300
C358        C  0.26938772  0.44406908  0.81857370     1.02400
O359        O  0.30511453  0.44786149  0.81321369    -0.78100
O360        O  0.37415341  0.46879290  0.78232453    -0.78300
C361        C  0.37275401  0.44591618  0.75329919     1.02400
O362        O  0.37510499  0.53453762  0.74154048    -0.85600
O363        O  0.30829878  0.55920137  0.70588188    -0.82600
C364        C  0.27337575  0.56112673  0.69546653     0.97900
O365        O  0.24798963  0.54114553  0.71289071    -0.82700
O366        O  0.25264690  0.55366843  0.79331546    -0.85300
C367        C  0.26692043  0.55341866  0.82720229     1.02400
O368        O  0.28862748  0.52561590  0.83750620    -0.78100
O369        O  0.35233968  0.55017318  0.79882157    -0.78200
C370        C  0.37392313  0.55748239  0.77044285     1.02300
Cr371      Cr  0.32991293  0.50737936  0.71697783     1.93700
Cr372      Cr  0.25202999  0.50604011  0.75979266     1.93200
Cr373      Cr  0.32844288  0.49855572  0.80476019     1.39100
O374        O  0.30319957  0.50373231  0.76030001    -1.23300
O375        O  0.47268441  0.74095055  0.36028564    -0.85600
O376        O  0.44720371  0.71190411  0.29012019    -0.82600
C377        C  0.44551657  0.70422027  0.25429277     0.97900
O378        O  0.46908947  0.71996056  0.23074067    -0.82700
O379        O  0.45839800  0.80008478  0.23806551    -0.85300
C380        C  0.45720993  0.83257835  0.25537294     1.02400
O381        O  0.48303039  0.84096594  0.27995364    -0.78100
O382        O  0.45598305  0.79838038  0.34079656    -0.78300
C383        C  0.44776137  0.76777201  0.35893714     1.02400
O384        O  0.55013806  0.72373040  0.33689871    -0.85600
O385        O  0.52344276  0.68714364  0.27225165    -0.82600
C386        C  0.54970158  0.69614644  0.24847352     0.97900
O387        O  0.55142660  0.73031587  0.23482171    -0.82700
O388        O  0.54182508  0.81176581  0.23604242    -0.85300
C389        C  0.56516007  0.82522567  0.26143958     1.02400
O390        O  0.56046780  0.81767255  0.29700477    -0.78100
O391        O  0.53737990  0.78052981  0.36277691    -0.78200
C392        C  0.55887972  0.75062416  0.36014773     1.02300
Cr393      Cr  0.49867821  0.71902970  0.31345160     1.93700
Cr394      Cr  0.50516260  0.76574241  0.23831075     1.93200
Cr395      Cr  0.50880700  0.80631725  0.31840954     1.39100
O396        O  0.50469350  0.76374126  0.28976798    -1.23300
O397        O  0.65907229  0.45017212  0.25916681    -0.85600
O398        O  0.71978261  0.47816307  0.30090332    -0.82600
C399        C  0.74797876  0.45579528  0.29449055     0.97900
O400        O  0.76161934  0.45275579  0.26032650    -0.82700
O401        O  0.76244086  0.46271040  0.17842462    -0.85300
C402        C  0.73766094  0.44048219  0.16252590     1.02400
O403        O  0.70196826  0.44553276  0.16784730    -0.78100
O404        O  0.63510923  0.46692633  0.20273755    -0.78300
C405        C  0.63841518  0.44231182  0.22998363     1.02400
O406        O  0.63427884  0.52907832  0.24460687    -0.85600
O407        O  0.70227798  0.55448360  0.27892087    -0.82600
C408        C  0.73787112  0.55699769  0.28697763     0.97900
O409        O  0.76240110  0.53480368  0.27066422    -0.82700
O410        O  0.75919703  0.54619037  0.19121466    -0.85300
C411        C  0.74362083  0.54868681  0.15808060     1.02400
O412        O  0.71918206  0.52356995  0.14762834    -0.78100
O413        O  0.65670923  0.54910845  0.18941706    -0.78200
C414        C  0.63664799  0.55548882  0.21935028     1.02300
Cr415      Cr  0.68029618  0.50269318  0.26780143     1.93700
Cr416      Cr  0.75773126  0.49898830  0.22460110     1.93200
Cr417      Cr  0.67989984  0.49662427  0.18007927     1.39100
O418        O  0.70643959  0.49907905  0.22415822    -1.23300
O419        O  0.75202812  0.62391685  0.52201403    -0.85600
O420        O  0.71973765  0.69189563  0.55170401    -0.82600
C421        C  0.70928375  0.72705141  0.55414856     0.97900
O422        O  0.72287882  0.75181330  0.53040635    -0.82700
O423        O  0.80187344  0.75036932  0.53930429    -0.85300
C424        C  0.83469895  0.73437065  0.54177647     1.02400
O425        O  0.84574842  0.71039536  0.51610757    -0.78100
O426        O  0.80734633  0.64640267  0.54015262    -0.78300
C427        C  0.77820041  0.62599805  0.54742845     1.02400
O428        O  0.73190608  0.65002447  0.44617112    -0.85600
O429        O  0.69201483  0.71040879  0.47686261    -0.82600
C430        C  0.69890934  0.73388558  0.44972765     0.97900
O431        O  0.73195297  0.74951049  0.44690467    -0.82700
O432        O  0.81290192  0.75481573  0.45564680    -0.85300
C433        C  0.82872536  0.73090727  0.43215002     1.02400
O434        O  0.82489359  0.69487753  0.43706702    -0.78100
O435        O  0.79033950  0.62736390  0.45681646    -0.78200
C436        C  0.76077841  0.63063731  0.43495264     1.02300
Cr437      Cr  0.72688423  0.67052633  0.49898451     1.93700
Cr438      Cr  0.76791175  0.74831947  0.49292867     1.93200
Cr439      Cr  0.81397550  0.67121453  0.48796160     1.39100
O440        O  0.76978585  0.69701862  0.49283223    -1.23300
O441        O  0.66037236  0.54923612  0.72283863    -0.85600
O442        O  0.71952868  0.51665819  0.68115234    -0.82600
C443        C  0.74387351  0.54237491  0.68911705     0.97900
O444        O  0.75875321  0.54360995  0.72293838    -0.82700
O445        O  0.76131086  0.53227349  0.80438849    -0.85300
C446        C  0.73723277  0.55520988  0.82043659     1.02400
O447        O  0.70145154  0.55067075  0.81603122    -0.78100
O448        O  0.63509253  0.53507583  0.77934447    -0.78300
C449        C  0.64091166  0.55938323  0.75219250     1.02400
O450        O  0.63062838  0.47332547  0.73720557    -0.85600
O451        O  0.69807694  0.44241890  0.70370707    -0.82600
C452        C  0.73378449  0.43893637  0.69592802     0.97900
O453        O  0.75862644  0.46064854  0.71226880    -0.82700
O454        O  0.75594731  0.44893277  0.79146710    -0.85300
C455        C  0.73877071  0.44546710  0.82380218     1.02400
O456        O  0.71457644  0.47094288  0.83447364    -0.78100
O457        O  0.65157371  0.45090734  0.79185191    -0.78200
C458        C  0.63176165  0.44618956  0.76156417     1.02300
Cr459      Cr  0.67841993  0.49548373  0.71433634     1.93700
Cr460      Cr  0.75522381  0.49654861  0.75818334     1.93200
Cr461      Cr  0.67728024  0.50143028  0.80232867     1.39100
O462        O  0.70409508  0.49784565  0.75848934    -1.23300
O463        O  0.53588326  0.73266294  0.62491609    -0.85600
O464        O  0.56234286  0.71052080  0.69784714    -0.82600
C465        C  0.56368057  0.70488503  0.73411700     0.97900
O466        O  0.53991083  0.72215119  0.75644264    -0.82700
O467        O  0.54936005  0.80109473  0.74388174    -0.85300
C468        C  0.55294229  0.83156584  0.72367543     1.02400
O469        O  0.52840869  0.83912577  0.69734621    -0.78100
O470        O  0.55259489  0.79092549  0.64034059    -0.78300
C471        C  0.56109496  0.75879637  0.62514404     1.02400
O472        O  0.45906427  0.71725329  0.65049402    -0.85600
O473        O  0.48733695  0.68627677  0.71667328    -0.82600
C474        C  0.46196697  0.69520662  0.74137775     0.97900
O475        O  0.45749969  0.73053197  0.75133445    -0.82700
O476        O  0.46618350  0.81245401  0.74488668    -0.85300
C477        C  0.44411779  0.82599892  0.71849004     1.02400
O478        O  0.44967818  0.81716999  0.68336904    -0.78100
O479        O  0.46969659  0.77270113  0.62148472    -0.78200
C480        C  0.44797871  0.74346352  0.62753190     1.02300
Cr481      Cr  0.51081316  0.71502251  0.67361286     1.93700
Cr482      Cr  0.50310558  0.76670546  0.74546270     1.93200
Cr483      Cr  0.50039990  0.80192190  0.66251352     1.39100
O484        O  0.50406151  0.76141707  0.69417299    -1.23300
O485        O  0.46337104  0.27816805  0.64099762    -0.85600
O486        O  0.48809256  0.31441402  0.70613213    -0.82600
C487        C  0.46207056  0.30549066  0.73033995     0.97900
O488        O  0.45926338  0.27084897  0.74266248    -0.82700
O489        O  0.46874958  0.18934026  0.74246114    -0.85300
C490        C  0.44541457  0.17617500  0.71701977     1.02400
O491        O  0.45041629  0.18406085  0.68163805    -0.78100
O492        O  0.47393319  0.22057683  0.61632775    -0.78300
C493        C  0.45236169  0.25030484  0.61999859     1.02400
O494        O  0.54177676  0.25974240  0.61894245    -0.85600
O495        O  0.56486069  0.28680144  0.69033102    -0.82600
C496        C  0.56445413  0.29698202  0.72550820     0.97900
O497        O  0.54102978  0.28097130  0.74886571    -0.82700
O498        O  0.55206673  0.20072818  0.74133017    -0.85300
C499        C  0.55260433  0.16792432  0.72464458     1.02400
O500        O  0.52736598  0.15950685  0.69939767    -0.78100
O501        O  0.55484706  0.20102388  0.63861254    -0.78200
C502        C  0.56390930  0.23044101  0.61912562     1.02300
Cr503      Cr  0.51418478  0.28167414  0.66543252     1.93700
Cr504      Cr  0.50542725  0.23518432  0.74040955     1.93200
Cr505      Cr  0.50210945  0.19441417  0.66069685     1.39100
O506        O  0.50672599  0.23706525  0.68900775    -1.23300
O507        O  0.75227116  0.37336647  0.45844579    -0.85600
O508        O  0.72348584  0.30373965  0.43154368    -0.82600
C509        C  0.71373630  0.26854324  0.43019532     0.97900
O510        O  0.72781332  0.24447081  0.45442582    -0.82700
O511        O  0.80643950  0.24885800  0.44434849    -0.85300
C512        C  0.83885001  0.26536714  0.44195603     1.02400
O513        O  0.84939796  0.28932500  0.46782067    -0.78100
O514        O  0.80975222  0.35229688  0.44376421    -0.78300
C515        C  0.78111054  0.37333812  0.43594318     1.02400
O516        O  0.73307505  0.34836692  0.53552449    -0.85600
O517        O  0.69610476  0.28600516  0.50759857    -0.82600
C518        C  0.70340017  0.26063455  0.53316343     0.97900
O519        O  0.73768784  0.24788294  0.53729041    -0.82700
O520        O  0.81944901  0.24497919  0.52731435    -0.85300
C521        C  0.83474400  0.26956448  0.55028321     1.02400
O522        O  0.82732741  0.30514219  0.54668587    -0.78100
O523        O  0.79122151  0.37152089  0.52618889    -0.78200
C524        C  0.76146190  0.36763892  0.54754829     1.02300
Cr525      Cr  0.72935302  0.32644634  0.48358620     1.93700
Cr526      Cr  0.77324441  0.24994340  0.49106057     1.93200
Cr527      Cr  0.81634973  0.32800876  0.49570765     1.39100
O528        O  0.77310946  0.30127790  0.49062926    -1.23300
C529        C  0.60009814  0.23114201  0.59621946    -0.00400
C530        C  0.63613684  0.22817887  0.61527797    -0.12300
C531        C  0.67094635  0.23567933  0.59524824     0.01800
C532        C  0.66972598  0.24560581  0.55538835    -0.00500
C533        C  0.63365156  0.24591718  0.53619664    -0.12200
C534        C  0.59919671  0.23922808  0.55617418     0.01700
H535        H  0.63691198  0.22231789  0.64629871     0.14700
H536        H  0.63206922  0.25312533  0.50551919     0.14700
C537        C  0.56307263  0.24173479  0.53509344     0.36400
C538        C  0.70683488  0.23617626  0.61679812     0.36300
N539        N  0.53409249  0.24378916  0.51828678    -0.44000
N540        N  0.73560684  0.23677037  0.63408127    -0.44000
C541        C  0.61261790  0.40867767  0.75302208    -0.00400
C542        C  0.60797851  0.38114559  0.78293214    -0.12300
C543        C  0.59339228  0.34392154  0.77499301     0.01800
C544        C  0.58414308  0.33347828  0.73633363    -0.00500
C545        C  0.58866103  0.36110132  0.70668892    -0.12200
C546        C  0.60231101  0.39824660  0.71448029     0.01700
H547        H  0.61589623  0.38862399  0.81257351     0.14700
H548        H  0.58065492  0.35403443  0.67694436     0.14700
C549        C  0.60647135  0.42410824  0.68159429     0.36400
C550        C  0.58869892  0.31704611  0.80684684     0.36300
N551        N  0.60975396  0.44451397  0.65504594    -0.44000
N552        N  0.58486493  0.29557944  0.83245281    -0.44000
C553        C  0.62500507  0.59954437  0.75412798    -0.00400
C554        C  0.59173995  0.60759398  0.77623476    -0.12300
C555        C  0.57402938  0.64439223  0.77464687     0.01800
C556        C  0.58832810  0.67284334  0.74863929    -0.00500
C557        C  0.62365174  0.66610633  0.73000119    -0.12200
C558        C  0.64284661  0.63058415  0.73399845     0.01700
H559        H  0.57900773  0.58495517  0.79398555     0.14700
H560        H  0.63599622  0.68854719  0.71168099     0.14700
C561        C  0.68196098  0.62825750  0.71966373     0.36400
C562        C  0.54081635  0.65161690  0.79912776     0.36300
N563        N  0.71377285  0.62815863  0.70924467    -0.44000
N564        N  0.51467635  0.65749391  0.81939917    -0.44000
C565        C  0.75897195  0.38405839  0.58731944    -0.00400
C566        C  0.73240996  0.36684146  0.61320983    -0.12300
C567        C  0.72597603  0.38213340  0.65027576     0.01800
C568        C  0.74605242  0.41554852  0.66208463    -0.00500
C569        C  0.77499088  0.43084765  0.63765085    -0.12200
C570        C  0.78177258  0.41530086  0.60056692     0.01700
H571        H  0.71619648  0.34132659  0.60441959     0.14700
H572        H  0.79090889  0.45649695  0.64657045     0.14700
C573        C  0.81092024  0.43313412  0.57643458     0.36400
C574        C  0.69939958  0.36243697  0.67586462     0.36300
N575        N  0.83445391  0.44741035  0.55728266    -0.44000
N576        N  0.67863090  0.34600211  0.69642047    -0.44000
C577        C  0.75349583  0.56921316  0.65677264    -0.00400
C578        C  0.79192210  0.57972552  0.64863153    -0.12300
C579        C  0.80138956  0.59845067  0.61331257     0.01800
C580        C  0.77198702  0.60672877  0.58567469    -0.00500
C581        C  0.73361071  0.59788469  0.59515063    -0.12200
C582        C  0.72413151  0.57957194  0.62976596     0.01700
H583        H  0.81469290  0.57164818  0.66882253     0.14700
H584        H  0.71034168  0.60525513  0.57520076     0.14700
C585        C  0.68351643  0.57144016  0.63602545     0.36400
C586        C  0.84145578  0.60709648  0.60557499     0.36300
N587        N  0.65088855  0.56508694  0.64008332    -0.44000
N588        N  0.87368368  0.61383527  0.59951523    -0.44000
C589        C  0.67557748  0.73724759  0.57914272    -0.00400
C590        C  0.65331736  0.70653408  0.59389601    -0.12300
C591        C  0.61619785  0.71282211  0.60863127     0.01800
C592        C  0.60051043  0.75094279  0.60973987    -0.00500
C593        C  0.62397921  0.78212881  0.59819717    -0.12200
C594        C  0.66111202  0.77568031  0.58285971     0.01700
H595        H  0.66400600  0.67687928  0.59210237     0.14700
H596        H  0.61294945  0.81162720  0.60025754     0.14700
C597        C  0.68328877  0.80906174  0.57082664     0.36400
C598        C  0.59533560  0.67917085  0.62233878     0.36300
N599        N  0.70100241  0.83588478  0.56125256    -0.44000
N600        N  0.57906214  0.65193511  0.63326163    -0.44000
C601        C  0.76443615  0.43617884  0.32944786    -0.00400
C602        C  0.75587829  0.45349350  0.36575734    -0.12300
C603        C  0.76298735  0.43440312  0.40069552     0.01800
C604        C  0.78030791  0.39738079  0.40031680    -0.00500
C605        C  0.79271688  0.38146964  0.36451711    -0.12200
C606        C  0.78472670  0.40049736  0.32903871     0.01700
H607        H  0.74180552  0.48172204  0.36706170     0.14700
H608        H  0.80637293  0.35302259  0.36405843     0.14700
C609        C  0.79553694  0.38180346  0.29299690     0.36400
C610        C  0.75109225  0.45315148  0.43649477     0.36300
N611        N  0.80423069  0.36674983  0.26410580    -0.44000
N612        N  0.74130702  0.46812893  0.46507109    -0.44000
C613        C  0.74984767  0.58044732  0.32081668    -0.00400
C614        C  0.77518719  0.56327938  0.34795816    -0.12300
C615        C  0.78005289  0.57920500  0.38519616     0.01800
C616        C  0.75939630  0.61311360  0.39560148    -0.00500
C617        C  0.73638728  0.63176628  0.36728487    -0.12200
C618        C  0.73164410  0.61587130  0.33015059     0.01700
H619        H  0.78933657  0.53592517  0.34099483     0.14700
H620        H  0.72175921  0.65887356  0.37423512     0.14700
C621        C  0.70852705  0.63671639  0.30197318     0.36400
C622        C  0.80446831  0.55886181  0.41260868     0.36300
N623        N  0.69041347  0.65376773  0.27931580    -0.44000
N624        N  0.82406796  0.54246857  0.43449926    -0.44000
C625        C  0.59475649  0.74691864  0.38360060    -0.00400
C626        C  0.61495612  0.78047502  0.39543107    -0.12300
C627        C  0.65078049  0.77757159  0.41479903     0.01800
C628        C  0.66683085  0.74062393  0.42224954    -0.00500
C629        C  0.64665827  0.70735730  0.41028656    -0.12200
C630        C  0.61080069  0.71003196  0.39202095     0.01700
H631        H  0.60293776  0.80898875  0.38929095     0.14700
H632        H  0.65814696  0.67875867  0.41720474     0.14700
C633        C  0.58999165  0.67426714  0.38519765     0.36400
C634        C  0.66937294  0.81252489  0.42845160     0.36300
N635        N  0.57327390  0.64556197  0.38035783    -0.44000
N636        N  0.68416121  0.84059875  0.43949504    -0.44000
C637        C  0.57768184  0.66495019  0.23880193    -0.00400
C638        C  0.59015039  0.64206332  0.27009746    -0.12300
C639        C  0.60903637  0.60673080  0.26431384     0.01800
C640        C  0.61690793  0.59348548  0.22602815    -0.00500
C641        C  0.60649756  0.61754247  0.19442995    -0.12200
C642        C  0.58651558  0.65290458  0.20054763     0.01700
H643        H  0.58364374  0.65127044  0.29960963     0.14700
H644        H  0.61264068  0.60806385  0.16493523     0.14700
C645        C  0.57319695  0.67485562  0.16736782     0.36400
C646        C  0.61994159  0.58516313  0.29874911     0.36300
N647        N  0.56238293  0.69244531  0.14077813    -0.44000
N648        N  0.62851219  0.56820376  0.32655195    -0.44000
C649        C  0.39480875  0.40842603  0.75234492    -0.00400
C650        C  0.37848296  0.37663085  0.73229488    -0.12300
C651        C  0.39836374  0.34111771  0.72856028     0.01800
C652        C  0.43604369  0.33719123  0.74367420    -0.00500
C653        C  0.45197030  0.36830454  0.76487327    -0.12200
C654        C  0.43137464  0.40331474  0.77020477     0.01700
H655        H  0.35001931  0.37956443  0.71930150     0.14700
H656        H  0.48116863  0.36565421  0.77625531     0.14700
C657        C  0.44925552  0.43393831  0.79257577     0.36400
C658        C  0.38007999  0.30948957  0.70798015     0.36300
N659        N  0.46355974  0.45828903  0.81083366    -0.44000
N660        N  0.36524529  0.28391815  0.69198721    -0.44000
C661        C  0.39817621  0.59260933  0.77067517    -0.00400
C662        C  0.38164972  0.62913352  0.77958810    -0.12300
C663        C  0.40223233  0.66379795  0.77280700     0.01800
C664        C  0.44015019  0.66174254  0.75770778    -0.00500
C665        C  0.45736956  0.62473287  0.75266674    -0.12200
C666        C  0.43677689  0.59065156  0.75828930     0.01700
H667        H  0.35185182  0.63067853  0.78940526     0.14700
H668        H  0.48686874  0.62210048  0.74215032     0.14700
C669        C  0.45568994  0.55403262  0.74976531     0.36400
C670        C  0.38296184  0.70058899  0.77885766     0.36300
N671        N  0.47080221  0.52479993  0.74258815    -0.44000
N672        N  0.36741909  0.73007376  0.78369985    -0.44000
C673        C  0.24046123  0.60806521  0.58388656    -0.00400
C674        C  0.27508020  0.58703090  0.58854426    -0.12300
C675        C  0.28677060  0.57323326  0.62482920     0.01800
C676        C  0.26348568  0.57991707  0.65803065    -0.00500
C677        C  0.22828492  0.59993746  0.65361041    -0.12200
C678        C  0.21683250  0.61453714  0.61711646     0.01700
H679        H  0.29363552  0.58146339  0.56366928     0.14700
H680        H  0.20979981  0.60432782  0.67877261     0.14700
C681        C  0.18105178  0.63628214  0.61508072     0.36400
C682        C  0.32203740  0.55050608  0.62647203     0.36300
N683        N  0.15237144  0.65373627  0.61367014    -0.44000
N684        N  0.35021636  0.53223329  0.62768416    -0.44000
C685        C  0.33814927  0.74186756  0.41357691    -0.00400
C686        C  0.34751467  0.78092619  0.40620613    -0.12300
C687        C  0.38262324  0.79070906  0.38762739     0.01800
C688        C  0.40913064  0.76102619  0.37689952    -0.00500
C689        C  0.39820868  0.72217345  0.38217702    -0.12200
C690        C  0.36334674  0.71241181  0.39974957     0.01700
H691        H  0.32844659  0.80378573  0.41662837     0.14700
H692        H  0.41711242  0.69884044  0.37242180     0.14700
C693        C  0.35468222  0.67147504  0.40335121     0.36400
C694        C  0.39123945  0.83120512  0.38129541     0.36300
N695        N  0.34858446  0.63850270  0.40572376    -0.44000
N696        N  0.39808598  0.86368045  0.37600936    -0.44000
C697        C  0.33603174  0.73430966  0.57051262    -0.00400
C698        C  0.34637083  0.70841610  0.60027016    -0.12300
C699        C  0.38221891  0.71071406  0.61901907     0.01800
C700        C  0.40929812  0.73981580  0.60821995    -0.00500
C701        C  0.39819097  0.76689276  0.57962165    -0.12200
C702        C  0.36199119  0.76463018  0.56102198     0.01700
H703        H  0.32674520  0.68512800  0.60808016     0.14700
H704        H  0.41800518  0.78980928  0.57136686     0.14700
C705        C  0.35327786  0.79283711  0.53115620     0.36400
C706        C  0.39000020  0.68191814  0.64863574     0.36300
N707        N  0.34635001  0.81559872  0.50734510    -0.44000
N708        N  0.39579730  0.65848386  0.67208645    -0.44000
C709        C  0.23645052  0.40060705  0.58589834    -0.00400
C710        C  0.24431906  0.37906683  0.61984783    -0.12300
C711        C  0.24908479  0.39754851  0.65595450     0.01800
C712        C  0.24564303  0.43823828  0.65833036    -0.00500
C713        C  0.23464024  0.45934630  0.62501385    -0.12200
C714        C  0.22977812  0.44086204  0.58895982     0.01700
H715        H  0.24890125  0.34789999  0.61770688     0.14700
H716        H  0.23235107  0.49079144  0.62667222     0.14700
C717        C  0.22143444  0.46424968  0.55510392     0.36400
C718        C  0.26096950  0.37471442  0.68915283     0.36300
N719        N  0.21477514  0.48306023  0.52799168    -0.44000
N720        N  0.27051759  0.35633217  0.71569585    -0.44000
C721        C  0.33866147  0.26498392  0.56907476    -0.00400
C722        C  0.35657145  0.22826395  0.56717370    -0.12300
C723        C  0.39370814  0.22218305  0.58326579     0.01800
C724        C  0.41366762  0.25354338  0.60099088    -0.00500
C725        C  0.39465410  0.28955839  0.60394651    -0.12200
C726        C  0.35779741  0.29535893  0.58882766     0.01700
H727        H  0.34250419  0.20493615  0.55135304     0.14700
H728        H  0.40869178  0.31395706  0.61811769     0.14700
C729        C  0.34130448  0.33375333  0.59311046     0.36400
C730        C  0.41047495  0.18377346  0.58084327     0.36300
N731        N  0.32988827  0.36510988  0.59750713    -0.44000
N732        N  0.42383914  0.15291613  0.57898784    -0.44000
C733        C  0.38716517  0.59696425  0.23415483    -0.00400
C734        C  0.36899607  0.62651542  0.25600996    -0.12300
C735        C  0.38556799  0.66332482  0.25976736     0.01800
C736        C  0.42128607  0.67120493  0.24174286    -0.00500
C737        C  0.43810688  0.64277353  0.21754375    -0.12200
C738        C  0.42142498  0.60585762  0.21357118     0.01700
H739        H  0.34178992  0.62078931  0.27065410     0.14700
H740        H  0.46580904  0.64843153  0.20383300     0.14700
C741        C  0.44145797  0.57720516  0.19022703     0.36400
C742        C  0.36532465  0.69256667  0.28220597     0.36300
N743        N  0.45759642  0.55432090  0.17148131    -0.44000
N744        N  0.34880891  0.71607042  0.29980433    -0.44000
C745        C  0.24199593  0.56711785  0.32037858    -0.00400
C746        C  0.25426034  0.60576340  0.32253199    -0.12300
C747        C  0.25255829  0.62616865  0.35786918     0.01800
C748        C  0.23943947  0.60733946  0.39208350    -0.00500
C749        C  0.22361633  0.57005687  0.38891628    -0.12200
C750        C  0.22465375  0.55000219  0.35338402     0.01700
H751        H  0.26723300  0.61928532  0.29720119     0.14700
H752        H  0.21184340  0.55596166  0.41451399     0.14700
C753        C  0.20822265  0.51157887  0.35164418     0.36400
C754        C  0.26326759  0.66669824  0.35785249     0.36300
N755        N  0.19409803  0.48116936  0.35061937    -0.44000
N756        N  0.27119601  0.69934428  0.35732479    -0.44000
C757        C  0.23918821  0.39248973  0.39465537    -0.00400
C758        C  0.27385222  0.41305213  0.38981163    -0.12300
C759        C  0.28514684  0.42713530  0.35365707     0.01800
C760        C  0.26149674  0.42105645  0.32055255    -0.00500
C761        C  0.22669076  0.40058321  0.32489592    -0.12200
C762        C  0.21549633  0.38596451  0.36148418     0.01700
H763        H  0.29264903  0.41838076  0.41454635     0.14700
H764        H  0.20807213  0.39640141  0.29980814     0.14700
C765        C  0.17956654  0.36484077  0.36388312     0.36400
C766        C  0.32035425  0.44974377  0.35224874     0.36300
N767        N  0.15067098  0.34802104  0.36563243    -0.44000
N768        N  0.34846392  0.46791522  0.35123455    -0.44000
C769        C  0.60385610  0.25340740  0.37651454    -0.00400
C770        C  0.63213405  0.27627883  0.35810012    -0.12300
C771        C  0.66966255  0.27876577  0.37288552     0.01800
C772        C  0.67970069  0.25791678  0.40668428    -0.00500
C773        C  0.65246474  0.23271247  0.42338362    -0.12200
C774        C  0.61462327  0.23067122  0.40903380     0.01700
H775        H  0.62484636  0.29284157  0.33225192     0.14700
H776        H  0.65981875  0.21672448  0.44957803     0.14700
C777        C  0.58715528  0.20701575  0.42990980     0.36400
C778        C  0.69713985  0.30347652  0.35328930     0.36300
N779        N  0.56522239  0.18810194  0.44679624    -0.44000
N780        N  0.71928149  0.32322880  0.33772979    -0.44000
C781        C  0.41508476  0.24892600  0.38855906    -0.00400
C782        C  0.38215174  0.22674525  0.37889955    -0.12300
C783        C  0.34544366  0.23596190  0.39413903     0.01800
C784        C  0.34101177  0.26864299  0.41851500    -0.00500
C785        C  0.37374333  0.29060388  0.42829315    -0.12200
C786        C  0.41046977  0.28080793  0.41431247     0.01700
H787        H  0.38480003  0.20267801  0.35868053     0.14700
H788        H  0.37079254  0.31503095  0.44815442     0.14700
C789        C  0.44278185  0.30377232  0.42777285     0.36400
C790        C  0.31271617  0.21233721  0.38334335     0.36300
N791        N  0.46855721  0.32229952  0.43858006    -0.44000
N792        N  0.28660375  0.19324909  0.37455699    -0.44000
C793        C  0.61772358  0.40472113  0.22823033    -0.00400
C794        C  0.57992549  0.40368164  0.21362114    -0.12300
C795        C  0.55795206  0.36967133  0.21603301     0.01800
C796        C  0.57375299  0.33585295  0.23322590    -0.00500
C797        C  0.61277708  0.33576679  0.24434559    -0.12200
C798        C  0.63492619  0.36978231  0.24161017     0.01700
H799        H  0.56691754  0.42991720  0.20186898     0.14700
H800        H  0.62531902  0.30984438  0.25722805     0.14700
C801        C  0.67536573  0.36802762  0.25203476     0.36400
C802        C  0.51898771  0.37045911  0.20106200     0.36300
N803        N  0.70794275  0.36672913  0.25974350    -0.44000
N804        N  0.48809585  0.37169861  0.18815744    -0.44000
C805        C  0.38981527  0.40607132  0.22860474    -0.00400
C806        C  0.39984241  0.39892501  0.26747391    -0.12300
C807        C  0.41503515  0.36339296  0.27926913     0.01800
C808        C  0.42167943  0.33336678  0.25158871    -0.00500
C809        C  0.40997809  0.33959687  0.21284506    -0.12200
C810        C  0.39365878  0.37538050  0.20125335     0.01700
H811        H  0.39575036  0.42139647  0.28933133     0.14700
H812        H  0.41450087  0.31687690  0.19136625     0.14700
C813        C  0.38177500  0.37975337  0.16119837     0.36400
C814        C  0.42490098  0.36007733  0.32005667     0.36300
N815        N  0.37202161  0.38310756  0.12912409    -0.44000
N816        N  0.43258338  0.35794311  0.35278201    -0.44000
C817        C  0.58606408  0.85894286  0.73020095    -0.00400
C818        C  0.58885038  0.89268317  0.70697928    -0.12300
C819        C  0.61898423  0.91960208  0.71202337     0.01800
C820        C  0.64742884  0.91318708  0.74082787    -0.00500
C821        C  0.64556690  0.87892024  0.76300556    -0.12200
C822        C  0.61563380  0.85195864  0.75800634     0.01700
H823        H  0.56697968  0.89860978  0.68510279     0.14700
H824        H  0.66729123  0.87356937  0.78522899     0.14700
C825        C  0.61620763  0.81779662  0.78239583     0.36400
C826        C  0.61856842  0.95463140  0.68890481     0.36300
N827        N  0.61686314  0.79047229  0.80201054    -0.44000
N828        N  0.61822069  0.98274195  0.67043278    -0.44000
C829        C  0.58260412  0.13852349  0.73387850    -0.00400
C830        C  0.62146620  0.14992041  0.73779167    -0.12300
C831        C  0.65101100  0.12208620  0.74245508     0.01800
C832        C  0.64164195  0.08217482  0.74353203    -0.00500
C833        C  0.60276703  0.07099997  0.74023138    -0.12200
C834        C  0.57341117  0.09856145  0.73532380     0.01700
H835        H  0.62882377  0.18051778  0.73649090     0.14700
H836        H  0.59522643  0.04043743  0.74174017     0.14700
C837        C  0.53390908  0.08501425  0.73305699     0.36400
C838        C  0.69032065  0.13519631  0.74781292     0.36300
N839        N  0.50226309  0.07421899  0.73127565    -0.44000
N840        N  0.72183952  0.14559790  0.75228389    -0.44000
C841        C  0.76093828  0.35602302  0.07327118    -0.00400
C842        C  0.78300498  0.39035979  0.07559576    -0.12300
C843        C  0.77751888  0.41726262  0.10567094     0.01800
C844        C  0.74953273  0.41009088  0.13456665    -0.00500
C845        C  0.72829458  0.37539495  0.13319624    -0.12200
C846        C  0.73375867  0.34835685  0.10314336     0.01700
H847        H  0.80438217  0.39676715  0.05342821     0.14700
H848        H  0.70660209  0.36980912  0.15532873     0.14700
C849        C  0.71056495  0.31352689  0.10379732     0.36400
C850        C  0.79895283  0.45324333  0.10443196     0.36300
N851        N  0.69192501  0.28564731  0.10450241    -0.44000
N852        N  0.81592578  0.48216835  0.10333049    -0.44000
C853        C  0.76605472  0.34892583  0.90063986    -0.00400
C854        C  0.73165793  0.37017752  0.90557714    -0.12300
C855        C  0.72201856  0.40113163  0.88090578     0.01800
C856        C  0.74711044  0.41170124  0.84995263    -0.00500
C857        C  0.78052399  0.38906754  0.84373089    -0.12200
C858        C  0.79019003  0.35810442  0.86859003     0.01700
H859        H  0.71265662  0.36351741  0.92978185     0.14700
H860        H  0.79967085  0.39596546  0.81972323     0.14700
C861        C  0.82494240  0.33623834  0.86009227     0.36400
C862        C  0.68594968  0.42117789  0.88842357     0.36300
N863        N  0.85282116  0.31892114  0.85288640    -0.44000
N864        N  0.65704171  0.43712892  0.89466466    -0.44000
C865        C  0.76089050  0.15714691  0.92521226    -0.00400
C866        C  0.72552970  0.15535756  0.90496709    -0.12300
C867        C  0.71482306  0.12156538  0.88422584     0.01800
C868        C  0.73979852  0.08869481  0.88369670    -0.00500
C869        C  0.77506134  0.09102688  0.90378728    -0.12200
C870        C  0.78601406  0.12443369  0.92368586     0.01700
H871        H  0.70584890  0.17996365  0.90606120     0.14700
H872        H  0.79495052  0.06656401  0.90369484     0.14700
C873        C  0.82383901  0.12381829  0.94185754     0.36400
C874        C  0.67804712  0.12151631  0.86427188     0.36300
N875        N  0.85400435  0.12299254  0.95653461    -0.44000
N876        N  0.64847991  0.12158283  0.84839641    -0.44000
C877        C  0.91422371  0.75689602  0.63584975    -0.00400
C878        C  0.88403073  0.78337733  0.62794917    -0.12300
C879        C  0.85748916  0.77672806  0.59796855     0.01800
C880        C  0.86072056  0.74274216  0.57505599    -0.00500
C881        C  0.88945386  0.71519401  0.58445306    -0.12200
C882        C  0.91589177  0.72173986  0.61458296     0.01700
H883        H  0.88189026  0.81028025  0.64438185     0.14700
H884        H  0.89167261  0.68845074  0.56781105     0.14700
C885        C  0.94522348  0.69253215  0.62157727     0.36400
C886        C  0.82870022  0.80633600  0.59035634     0.36300
N887        N  0.96866449  0.66904828  0.62711935    -0.44000
N888        N  0.80570988  0.83014596  0.58432377    -0.44000
C889        C  0.14275611  0.74538677  0.56699441    -0.00400
C890        C  0.10340645  0.74471152  0.55643800    -0.12300
C891        C  0.07410765  0.75128634  0.58384508     0.01800
C892        C  0.08367684  0.75813924  0.62324304    -0.00500
C893        C  0.12297126  0.75906135  0.63400592    -0.12200
C894        C  0.15246276  0.75319427  0.60624875     0.01700
H895        H  0.09538723  0.73865130  0.52648392     0.14700
H896        H  0.13066415  0.76496964  0.66406347     0.14700
C897        C  0.19224112  0.75385316  0.61909975     0.36400
C898        C  0.03433205  0.74952735  0.57089048     0.36300
N899        N  0.22415225  0.75442191  0.62936601    -0.44000
N900        N  0.00250261  0.74815623  0.56044729    -0.44000
C901        C  0.90895778  0.89010842  0.73336154    -0.00400
C902        C  0.89594253  0.91253402  0.70149639    -0.12300
C903        C  0.86002640  0.93206088  0.70260469     0.01800
C904        C  0.83629286  0.92895271  0.73577029    -0.00500
C905        C  0.84888093  0.90609676  0.76698964    -0.12200
C906        C  0.88413099  0.88633111  0.76607339     0.01700
H907        H  0.91417803  0.91564570  0.67602344     0.14700
H908        H  0.83196617  0.90552496  0.79354686     0.14700
C909        C  0.89385139  0.86348534  0.80004837     0.36400
C910        C  0.84937802  0.95720138  0.67073016     0.36300
N911        N  0.90125790  0.84521455  0.82735134    -0.44000
N912        N  0.84090385  0.97743500  0.64519699    -0.44000
C913        C  0.35820632  0.09025318  0.74450651    -0.00400
C914        C  0.37572238  0.11213580  0.77447941    -0.12300
C915        C  0.40304901  0.14101458  0.76650416     0.01800
C916        C  0.41383147  0.14870686  0.72761645    -0.00500
C917        C  0.39519924  0.12795546  0.69755441    -0.12200
C918        C  0.36773800  0.09917002  0.70551051     0.01700
H919        H  0.36848831  0.10644682  0.80465733     0.14700
H920        H  0.40260174  0.13359459  0.66740755     0.14700
C921        C  0.35003771  0.07957280  0.67284922     0.36400
C922        C  0.41910175  0.16227387  0.79899600     0.36300
N923        N  0.33589361  0.06406149  0.64653117    -0.44000
N924        N  0.43179579  0.17931168  0.82511689    -0.44000
C925        C  0.36088850  0.91602145  0.74722664    -0.00400
C926        C  0.35881232  0.89691542  0.71116670    -0.12300
C927        C  0.38451853  0.86687157  0.70151472     0.01800
C928        C  0.41324150  0.85477499  0.72852542    -0.00500
C929        C  0.41426170  0.87289503  0.76523954    -0.12200
C930        C  0.38870161  0.90320098  0.77473760     0.01700
H931        H  0.33744010  0.90604129  0.68986235     0.14700
H932        H  0.43582664  0.86410192  0.78646347     0.14700
C933        C  0.39170169  0.92012165  0.81314749     0.36400
C934        C  0.38047406  0.84969103  0.66336560     0.36300
N935        N  0.39427006  0.93361417  0.84394051    -0.44000
N936        N  0.37677674  0.83657905  0.63255371    -0.44000
C937        C  0.16870270  0.92631407  0.73522002    -0.00400
C938        C  0.13495341  0.94269755  0.75103529    -0.12300
C939        C  0.09851083  0.92869329  0.74110079     0.01800
C940        C  0.09527285  0.89624460  0.71614867    -0.00500
C941        C  0.12899175  0.88105740  0.69852994    -0.12200
C942        C  0.16566488  0.89630484  0.70751229     0.01700
H943        H  0.13704757  0.96705760  0.77104469     0.14700
H944        H  0.12691115  0.85622949  0.67912511     0.14700
C945        C  0.19965791  0.87968886  0.68953346     0.36400
C946        C  0.06493897  0.94865513  0.75650067     0.36300
N947        N  0.22691664  0.86636455  0.67507729    -0.44000
N948        N  0.03804251  0.96480749  0.76858086    -0.44000
C949        C  0.76407559  0.64257007  0.90556300    -0.00400
C950        C  0.79019408  0.61165915  0.89886884    -0.12300
C951        C  0.78357412  0.58405607  0.86970692     0.01800
C952        C  0.74987942  0.58679235  0.84668864    -0.00500
C953        C  0.72483606  0.61871943  0.85195537    -0.12200
C954        C  0.73164669  0.64656816  0.88079706     0.01700
H955        H  0.81586254  0.60862097  0.91683684     0.14700
H956        H  0.69913867  0.62149890  0.83394838     0.14700
C957        C  0.70413799  0.67805114  0.88466617     0.36400
C958        C  0.81097328  0.55248503  0.86542982     0.36300
N959        N  0.68204811  0.70328913  0.88744099    -0.44000
N960        N  0.83305125  0.52731681  0.86194296    -0.44000
C961        C  0.76737772  0.64097456  0.07605291    -0.00400
C962        C  0.78737531  0.63979909  0.11168352    -0.12300
C963        C  0.78033668  0.61043963  0.13906150     0.01800
C964        C  0.75313066  0.58085218  0.13064084    -0.00500
C965        C  0.73313564  0.58238488  0.09487338    -0.12200
C966        C  0.73990147  0.61188252  0.06782204     0.01700
H967        H  0.80872401  0.66196015  0.11814706     0.14700
H968        H  0.71209369  0.56020449  0.08759992     0.14700
C969        C  0.71973703  0.61016576  0.03096827     0.36400
C970        C  0.80154453  0.61175948  0.17528791     0.36300
N971        N  0.70365866  0.60865939  0.00142409    -0.44000
N972        N  0.81851334  0.61302716  0.20433655    -0.44000
C973        C  0.90107087  0.73088315  0.89532961    -0.00400
C974        C  0.88379818  0.72460776  0.85867809    -0.12300
C975        C  0.90430360  0.73191730  0.82396008     0.01800
C976        C  0.94294662  0.74501140  0.82584656    -0.00500
C977        C  0.96073951  0.74828964  0.86267890    -0.12200
C978        C  0.94017689  0.74188525  0.89705669     0.01700
H979        H  0.85359254  0.71625036  0.85719634     0.14700
H980        H  0.99068615  0.75748013  0.86476994     0.14700
C981        C  0.95970657  0.74742490  0.93387125     0.36400
C982        C  0.88424810  0.72867629  0.78723652     0.36300
N983        N  0.97529010  0.75187714  0.96338235    -0.44000
N984        N  0.86814153  0.72619602  0.75777651    -0.44000
C985        C  0.75500448  0.83128742  0.91037713    -0.00400
C986        C  0.76436196  0.83324801  0.87071904    -0.12300
C987        C  0.75860442  0.86774581  0.84978170     0.01800
C988        C  0.74566060  0.90164079  0.86926920    -0.00500
C989        C  0.73370109  0.89890835  0.90792777    -0.12200
C990        C  0.73781071  0.86411574  0.92841184     0.01700
H991        H  0.77643582  0.80791640  0.85621116     0.14700
H992        H  0.72261298  0.92454238  0.92273170     0.14700
C993        C  0.72621351  0.86453677  0.96855202     0.36400
C994        C  0.76370704  0.86691505  0.80808605     0.36300
N995        N  0.71588019  0.86708075  0.00041443    -0.44000
N996        N  0.76681783  0.86564214  0.77455283    -0.44000
C997        C  0.08668827  0.75919321  0.34920506    -0.00400
C998        C  0.10360568  0.72228813  0.34605474    -0.12300
C999        C  0.13433557  0.71118605  0.37014849     0.01800
C1000       C  0.14919354  0.73757506  0.39832550    -0.00500
C1001       C  0.13376552  0.77532963  0.39975172    -0.12200
C1002       C  0.10286192  0.78631186  0.37574652     0.01700
H1003       H  0.09211227  0.70149825  0.32528530     0.14700
H1004       H  0.14489442  0.79609795  0.42072098     0.14700
C1005       C  0.08876419  0.82577214  0.37912795     0.36400
C1006       C  0.14894239  0.67208474  0.36532514     0.36300
N1007       N  0.07760679  0.85741145  0.38210419    -0.44000
N1008       N  0.15970086  0.64048395  0.36097026    -0.44000
C1009       C  0.85460877  0.74497964  0.40039804     0.11600
C1010       C  0.87223963  0.78148679  0.40441769    -0.12300
C1011       C  0.90082468  0.79393300  0.37832328     0.01800
C1012       C  0.91225685  0.76975828  0.34679048    -0.00500
C1013       C  0.89353655  0.73396021  0.34185543    -0.12200
C1014       C  0.86497581  0.72150220  0.36798279     0.01700
H1015       H  0.86497220  0.79979955  0.42913300     0.14700
H1016       H  0.90145445  0.71537087  0.31754963     0.14700
C1017       C  0.84693498  0.68446494  0.36038229     0.36400
C1018       C  0.91945759  0.83062590  0.38635659     0.36300
N1019       N  0.83280999  0.65471240  0.35385455    -0.44000
N1020       N  0.93441828  0.85997080  0.39292824    -0.44000
C1021       C  0.89900591  0.74929794  0.08017109    -0.00400
C1022       C  0.90649507  0.78718073  0.09294182    -0.12300
C1023       C  0.92371454  0.79445070  0.12873717     0.01800
C1024       C  0.93393023  0.76330244  0.15370962    -0.00500
C1025       C  0.92604073  0.72507826  0.14152107    -0.12200
C1026       C  0.90881666  0.71782945  0.10490114     0.01700
H1027       H  0.89913736  0.81173411  0.07449639     0.14700
H1028       H  0.93484295  0.70089978  0.15975017     0.14700
C1029       C  0.90135816  0.67811830  0.09366439     0.36400
C1030       C  0.93150710  0.83470800  0.13783209     0.36300
N1031       N  0.89547734  0.64624739  0.08462512    -0.44000
N1032       N  0.93735685  0.86738646  0.14321952    -0.44000
C1033       C  0.91744558  0.24452625  0.34694676    -0.00400
C1034       C  0.88748815  0.21801753  0.35454327    -0.12300
C1035       C  0.86152754  0.22394404  0.38509742     0.01800
C1036       C  0.86477303  0.25755003  0.40855203    -0.00500
C1037       C  0.89321773  0.28525016  0.39944732    -0.12200
C1038       C  0.91947720  0.27909590  0.36909325     0.01700
H1039       H  0.88518296  0.19157813  0.33744576     0.14700
H1040       H  0.89542158  0.31171379  0.41652549     0.14700
C1041       C  0.94921150  0.30785214  0.36297229     0.36400
C1042       C  0.83343018  0.19389541  0.39268847     0.36300
N1043       N  0.97304157  0.33091282  0.35818255    -0.44000
N1044       N  0.81108062  0.16965338  0.39868227    -0.44000
C1045       C  0.08574627  0.24407247  0.35901316    -0.00400
C1046       C  0.12470366  0.24663806  0.34747592    -0.12300
C1047       C  0.15428733  0.25214467  0.37507405     0.01800
C1048       C  0.14485858  0.25617180  0.41489558    -0.00500
C1049       C  0.10589330  0.25352526  0.42623874    -0.12200
C1050       C  0.07654142  0.24725562  0.39896425     0.01700
H1051       H  0.13210978  0.24363316  0.31692505     0.14700
H1052       H  0.09822440  0.25692699  0.45670339     0.14700
C1053       C  0.03704683  0.24555445  0.41275346     0.36400
C1054       C  0.19367570  0.25544954  0.36156288     0.36300
N1055       N  0.00543817  0.24410088  0.42380504    -0.44000
N1056       N  0.22520653  0.25820515  0.35058806    -0.44000
C1057       C  0.90004132  0.27377149  0.08899436    -0.00400
C1058       C  0.93845875  0.26200368  0.08483335    -0.12300
C1059       C  0.96166255  0.25471796  0.11720964     0.01800
C1060       C  0.94642214  0.25889890  0.15549485    -0.00500
C1061       C  0.90871086  0.27393715  0.15973484    -0.12200
C1062       C  0.88542264  0.28137457  0.12675105     0.01700
H1063       H  0.94995515  0.25671665  0.05586973     0.14700
H1064       H  0.89657429  0.27748504  0.18864504     0.14700
C1065       C  0.84585902  0.29373146  0.13247641     0.36400
C1066       C  0.00041256  0.24079131  0.10944099     0.36300
N1067       N  0.81412562  0.30351701  0.13726839    -0.44000
N1068       N  0.03096940  0.22891216  0.10227995    -0.44000
C1069       C  0.92486971  0.24393325  0.63381107    -0.00400
C1070       C  0.91947345  0.21970786  0.60106870    -0.12300
C1071       C  0.88965496  0.22646862  0.57421868     0.01800
C1072       C  0.86387089  0.25791673  0.57995456    -0.00500
C1073       C  0.86910981  0.28204889  0.61268156    -0.12200
C1074       C  0.89917819  0.27553549  0.63932869     0.01700
H1075       H  0.93887575  0.19533802  0.59606531     0.14700
H1076       H  0.84999852  0.30676405  0.61711319     0.14700
C1077       C  0.90363855  0.30276475  0.67104490     0.36400
C1078       C  0.88789634  0.20207645  0.53994657     0.36300
N1079       N  0.90725236  0.32473441  0.69634627    -0.44000
N1080       N  0.88675019  0.18263778  0.51241406    -0.44000
C1081       C  0.09646054  0.24106401  0.64128949    -0.00400
C1082       C  0.09426459  0.27898199  0.62643184    -0.12300
C1083       C  0.11965958  0.29177165  0.59742060     0.01800
C1084       C  0.14950440  0.26689430  0.58346521    -0.00500
C1085       C  0.15232521  0.22930409  0.59883774    -0.12200
C1086       C  0.12613217  0.21605907  0.62699249     0.01700
H1087       H  0.07125502  0.29828968  0.63602627     0.14700
H1088       H  0.17478682  0.20981001  0.58832515     0.14700
C1089       C  0.13028803  0.17620383  0.63932493     0.36400
C1090       C  0.11216267  0.32956415  0.58064780     0.36300
N1091       N  0.13413417  0.14395229  0.64800998    -0.44000
N1092       N  0.10579223  0.35965910  0.56699592    -0.44000
C1093       C  0.83584530  0.08171620  0.74902440    -0.00400
C1094       C  0.84398227  0.09226154  0.71029419    -0.12300
C1095       C  0.88043043  0.10701924  0.69972339     0.01800
C1096       C  0.90985486  0.11075034  0.72816476    -0.00500
C1097       C  0.90142480  0.10055412  0.76675406    -0.12200
C1098       C  0.86524702  0.08648326  0.77746409     0.01700
H1099       H  0.82206464  0.08825207  0.68803950     0.14700
H1100       H  0.92324153  0.10394533  0.78923722     0.14700
C1101       C  0.86037010  0.07593290  0.81789627     0.36400
C1102       C  0.88701860  0.11679710  0.65941713     0.36300
N1103       N  0.85696401  0.06756229  0.85033312    -0.44000
N1104       N  0.89216548  0.12454227  0.62705217    -0.44000
C1105       C  0.10059848  0.10991447  0.72651635    -0.00400
C1106       C  0.10432491  0.07533619  0.70511036    -0.12300
C1107       C  0.14024198  0.05669012  0.70185868     0.01800
C1108       C  0.17318521  0.07267368  0.72012796    -0.00500
C1109       C  0.17029323  0.10908084  0.73807897    -0.12200
C1110       C  0.13440694  0.12781835  0.74138264     0.01700
H1111       H  0.07891159  0.06196121  0.69235087     0.14700
H1112       H  0.19538250  0.12122967  0.75265754     0.14700
C1113       C  0.13329738  0.16525510  0.76031566     0.36400
C1114       C  0.14220518  0.01966126  0.68202502     0.36300
N1115       N  0.13275088  0.19531830  0.77542663    -0.44000
N1116       N  0.14370189  0.99009589  0.66594035    -0.44000
C1117       C  0.92422624  0.23677940  0.82696703    -0.00400
C1118       C  0.94086509  0.26322362  0.85341140    -0.12300
C1119       C  0.92600544  0.26813569  0.89114466     0.01800
C1120       C  0.89370739  0.24610978  0.90308152    -0.00500
C1121       C  0.87567042  0.22167242  0.87559999    -0.12200
C1122       C  0.89023186  0.21723532  0.83788299     0.01700
H1123       H  0.96719012  0.27885955  0.84522053     0.14700
H1124       H  0.84930335  0.20598143  0.88351332     0.14700
C1125       C  0.86869046  0.19412561  0.81034207     0.36400
C1126       C  0.94540420  0.29462201  0.91724099     0.36300
N1127       N  0.85061259  0.17644153  0.78821005    -0.44000
N1128       N  0.96106057  0.31599257  0.93796025    -0.44000
C1129       C  0.26091314  0.59174479  0.13482736    -0.00400
C1130       C  0.28905108  0.60892526  0.11073477    -0.12300
C1131       C  0.27952420  0.63834790  0.08423502     0.01800
C1132       C  0.24082501  0.65164843  0.08128938    -0.00500
C1133       C  0.21302392  0.63565130  0.10669598    -0.12200
C1134       C  0.22262487  0.60609593  0.13313841     0.01700
H1135       H  0.31874832  0.59860363  0.11171974     0.14700
H1136       H  0.18325879  0.64572712  0.10553554     0.14700
C1137       C  0.19262440  0.59150024  0.15838607     0.36400
C1138       C  0.31010733  0.65315063  0.05979524     0.36300
N1139       N  0.16860659  0.57983783  0.17868249    -0.44000
N1140       N  0.33467929  0.66492251  0.04024242    -0.44000
C1141       C  0.24556999  0.64241976  0.91389947    -0.00400
C1142       C  0.25026776  0.65297268  0.87466449    -0.12300
C1143       C  0.25631730  0.62456316  0.84566939     0.01800
C1144       C  0.25821626  0.58474996  0.85587557    -0.00500
C1145       C  0.25462012  0.57448721  0.89524444    -0.12200
C1146       C  0.24813816  0.60261919  0.92403155     0.01700
H1147       H  0.24816744  0.68334869  0.86648454     0.14700
H1148       H  0.25663375  0.54414255  0.90361497     0.14700
C1149       C  0.24488590  0.58973837  0.96395135     0.36400
C1150       C  0.26171058  0.63713921  0.80596568     0.36300
N1151       N  0.24221956  0.57940817  0.99589494    -0.44000
N1152       N  0.26613259  0.64726463  0.77416046    -0.44000
C1153       C  0.08798259  0.76064185  0.81824991    -0.00400
C1154       C  0.08507209  0.72212612  0.83212060    -0.12300
C1155       C  0.09701183  0.71222551  0.86990877     0.01800
C1156       C  0.11170605  0.74121959  0.89476162    -0.00500
C1157       C  0.11553123  0.77925430  0.88064508    -0.12200
C1158       C  0.10510450  0.78897022  0.84268288     0.01700
H1159       H  0.07175062  0.69994128  0.81414461     0.14700
H1160       H  0.12689463  0.80181969  0.89939563     0.14700
C1161       C  0.11163251  0.82860438  0.83042641     0.36400
C1162       C  0.09115073  0.67297613  0.88342725     0.36300
N1163       N  0.11695310  0.86032731  0.82066851    -0.44000
N1164       N  0.08618007  0.64159725  0.89439812    -0.44000
C1165       C  0.11545205  0.74591790  0.08888600    -0.00400
C1166       C  0.13608646  0.76759419  0.11683599    -0.12300
C1167       C  0.12187523  0.77268474  0.15450815     0.01800
C1168       C  0.08659241  0.75540157  0.16496944    -0.00500
C1169       C  0.06848852  0.72976297  0.13865860    -0.12200
C1170       C  0.08256600  0.72494065  0.10072206     0.01700
H1171       H  0.16297312  0.78167640  0.10890436     0.14700
H1172       H  0.04141710  0.71597449  0.14653941     0.14700
C1173       C  0.06117241  0.70060495  0.07410061     0.36400
C1174       C  0.14351546  0.79643047  0.18152789     0.36300
N1175       N  0.04396417  0.68098722  0.05289699    -0.44000
N1176       N  0.16100643  0.81529006  0.20318400    -0.44000
C1177       C  0.23625522  0.83738843  0.90764349    -0.00400
C1178       C  0.20618112  0.86210234  0.89524517    -0.12300
C1179       C  0.21363833  0.89876681  0.87962159     0.01800
C1180       C  0.25230395  0.91146414  0.87476003    -0.00500
C1181       C  0.28255160  0.88620413  0.88554780    -0.12200
C1182       C  0.27496434  0.84979720  0.90234470     0.01700
H1183       H  0.17626914  0.85363764  0.89933843     0.14700
H1184       H  0.31233827  0.89520137  0.88152203     0.14700
C1185       C  0.30756763  0.82634631  0.91439989     0.36400
C1186       C  0.18059208  0.92242836  0.86905096     0.36300
N1187       N  0.33376105  0.80773666  0.92428172    -0.44000
N1188       N  0.15398659  0.94128243  0.86086282    -0.44000
C1189       C  0.23287978  0.35657746  0.89960684    -0.00400
C1190       C  0.26891385  0.35322205  0.88138712    -0.12300
C1191       C  0.28058260  0.37993647  0.85333592     0.01800
C1192       C  0.25587306  0.41137974  0.84307899    -0.00500
C1193       C  0.21882604  0.41342479  0.85975325    -0.12200
C1194       C  0.20716549  0.38652814  0.88787395     0.01700
H1195       H  0.28846383  0.32984684  0.88957290     0.14700
H1196       H  0.19950117  0.43718820  0.85225067     0.14700
C1197       C  0.16970643  0.39211183  0.90578599     0.36400
C1198       C  0.31850763  0.37424033  0.83652977     0.36300
N1199       N  0.13971856  0.39666838  0.92014194    -0.44000
N1200       N  0.34907928  0.36927777  0.82366986    -0.44000
C1201       C  0.26540974  0.41772593  0.12476413    -0.00400
C1202       C  0.26766079  0.42692560  0.08502256    -0.12300
C1203       C  0.26262078  0.39847768  0.05643752     0.01800
C1204       C  0.25611769  0.35945992  0.06725701    -0.00500
C1205       C  0.25531456  0.34972447  0.10693115    -0.12200
C1206       C  0.25954123  0.37854641  0.13572632     0.01700
H1207       H  0.27253065  0.45676738  0.07614368     0.14700
H1208       H  0.24959976  0.31993816  0.11542744     0.14700
C1209       C  0.25806125  0.36710877  0.17612830     0.36400
C1210       C  0.26357104  0.41025260  0.01604108     0.36300
N1211       N  0.25677576  0.35801951  0.20853538    -0.44000
N1212       N  0.26407006  0.41969978  0.98371250    -0.44000
C1213       C  0.12739987  0.26135520  0.09595268    -0.00400
C1214       C  0.13823095  0.22724243  0.11542615    -0.12300
C1215       C  0.12372221  0.21886934  0.15239415     0.01800
C1216       C  0.09646459  0.24415550  0.16979480    -0.00500
C1217       C  0.08884173  0.28025590  0.15186760    -0.12200
C1218       C  0.10416572  0.28902110  0.11520032     0.01700
H1219       H  0.15793056  0.20686994  0.10156677     0.14700
H1220       H  0.06846335  0.30048024  0.16491964     0.14700
C1221       C  0.09286470  0.32489706  0.09655054     0.36400
C1222       C  0.13769484  0.18442087  0.17173729     0.36300
N1223       N  0.08372010  0.35359042  0.08153010    -0.44000
N1224       N  0.14976360  0.15711393  0.18718089    -0.44000
C1225       C  0.10245597  0.26430561  0.90833249    -0.00400
C1226       C  0.12007182  0.27544117  0.87314973    -0.12300
C1227       C  0.10118231  0.27006033  0.83726671     0.01800
C1228       C  0.06472978  0.25180051  0.83652113    -0.00500
C1229       C  0.04599897  0.24426035  0.87230891    -0.12200
C1230       C  0.06441100  0.25045788  0.90792431     0.01700
H1231       H  0.14946815  0.28673792  0.87360081     0.14700
H1232       H  0.01725285  0.23139464  0.87256822     0.14700
C1233       C  0.04478986  0.23994621  0.94351178     0.36400
C1234       C  0.12058652  0.28151855  0.80196133     0.36300
N1235       N  0.02910111  0.23162806  0.97206014    -0.44000
N1236       N  0.13612900  0.29093346  0.77368169    -0.44000
C1237       C  0.24842026  0.10194717  0.86501112    -0.00400
C1238       C  0.28207506  0.12049720  0.87887666    -0.12300
C1239       C  0.27998955  0.15718166  0.89705328     0.01800
C1240       C  0.24377156  0.17550147  0.90189962    -0.00500
C1241       C  0.21091518  0.15865349  0.88509233    -0.12200
C1242       C  0.21270235  0.12238324  0.86699314     0.01700
H1243       H  0.30992138  0.10608108  0.87615345     0.14700
H1244       H  0.18291713  0.17262012  0.88895334     0.14700
C1245       C  0.17661476  0.10616561  0.85326537     0.36400
C1246       C  0.31481184  0.17442987  0.91242323     0.36300
N1247       N  0.14765284  0.09332536  0.84230878    -0.44000
N1248       N  0.34275553  0.18851186  0.92444848    -0.44000
C1249       C  0.59552947  0.85366636  0.25027670    -0.00400
C1250       C  0.58697161  0.88077435  0.22116947    -0.12300
C1251       C  0.61178656  0.91191086  0.21336356     0.01800
C1252       C  0.64638506  0.91701143  0.23546199    -0.00500
C1253       C  0.65574322  0.88861986  0.26338763    -0.12200
C1254       C  0.63098109  0.85707832  0.27061034     0.01700
H1255       H  0.56002082  0.87834692  0.20510392     0.14700
H1256       H  0.68264900  0.89079493  0.27949903     0.14700
C1257       C  0.64369414  0.82747864  0.29746908     0.36400
C1258       C  0.60040036  0.93773276  0.18220104     0.36300
N1259       N  0.65452446  0.80344250  0.31836007    -0.44000
N1260       N  0.59113961  0.95814974  0.15707962    -0.44000
C1261       C  0.65230692  0.09204806  0.23052309    -0.00400
C1262       C  0.64607495  0.09950136  0.27025932    -0.12300
C1263       C  0.61861044  0.12686699  0.28289732     0.01800
C1264       C  0.59623721  0.14818026  0.25540205    -0.00500
C1265       C  0.60359427  0.14190400  0.21562232    -0.12200
C1266       C  0.63104906  0.11438986  0.20298725     0.01700
H1267       H  0.66211001  0.08310712  0.29191957     0.14700
H1268       H  0.58723750  0.15805340  0.19402782     0.14700
C1269       C  0.63562461  0.10932120  0.16146089     0.36400
C1270       C  0.61348883  0.13095121  0.32447541     0.36300
N1271       N  0.63910818  0.10530551  0.12816739    -0.44000
N1272       N  0.60949988  0.13391873  0.35781737    -0.44000
C1273       C  0.75023787  0.09147135  0.10726729    -0.00400
C1274       C  0.76741773  0.12153096  0.12910241    -0.12300
C1275       C  0.77120760  0.15900932  0.11396428     0.01800
C1276       C  0.75733287  0.16717842  0.07634083    -0.00500
C1277       C  0.73728536  0.13802974  0.05574694    -0.12200
C1278       C  0.73374783  0.10033060  0.07081368     0.01700
H1279       H  0.77862903  0.11555254  0.15800491     0.14700
H1280       H  0.72678452  0.14386665  0.02654863     0.14700
C1281       C  0.71573326  0.07080700  0.04709427     0.36400
C1282       C  0.78953308  0.18845305  0.13755315     0.36300
N1283       N  0.70138205  0.04709997  0.02804106    -0.44000
N1284       N  0.80399323  0.21187633  0.15685758    -0.44000
C1285       C  0.75930086  0.82718937  0.07038498    -0.00400
C1286       C  0.79031664  0.85028567  0.08257710    -0.12300
C1287       C  0.78422859  0.88565101  0.10141519     0.01800
C1288       C  0.74596511  0.89876992  0.10895874    -0.00500
C1289       C  0.71496479  0.87357745  0.10056508    -0.12200
C1290       C  0.72134947  0.83786963  0.08136233     0.01700
H1291       H  0.81969537  0.84165773  0.07518116     0.14700
H1292       H  0.68557704  0.88265574  0.10707405     0.14700
C1293       C  0.68836936  0.81525667  0.06919732     0.36400
C1294       C  0.81826269  0.90766190  0.11194438     0.36300
N1295       N  0.66185184  0.79745304  0.05902669    -0.44000
N1296       N  0.84582416  0.92485399  0.12020827    -0.44000
C1297       C  0.83582011  0.91862147  0.24278878    -0.00400
C1298       C  0.86347134  0.93851531  0.26537432    -0.12300
C1299       C  0.90151427  0.92454195  0.26867612     0.01800
C1300       C  0.91215226  0.89002154  0.24920070    -0.00500
C1301       C  0.88341880  0.86845145  0.22973499    -0.12200
C1302       C  0.84557966  0.88240669  0.22641961     0.01700
H1303       H  0.85627162  0.96661202  0.27789800     0.14700
H1304       H  0.89070464  0.84079064  0.21631844     0.14700
C1305       C  0.81739091  0.85941278  0.20560895     0.36400
C1306       C  0.92950286  0.94761159  0.28960596     0.36300
N1307       N  0.79468717  0.84093990  0.18916902    -0.44000
N1308       N  0.95197501  0.96611497  0.30633453    -0.44000
C1309       C  0.84109220  0.07326783  0.23629227    -0.00400
C1310       C  0.85431619  0.08140212  0.27419351    -0.12300
C1311       C  0.89030720  0.09992999  0.28028982     0.01800
C1312       C  0.91308385  0.11146123  0.24797663    -0.00500
C1313       C  0.89891835  0.10453725  0.21053591    -0.12200
C1314       C  0.86422489  0.08523114  0.20435441     0.01700
H1315       H  0.83774077  0.07128971  0.29896344     0.14700
H1316       H  0.91595803  0.11299566  0.18540362     0.14700
C1317       C  0.85535491  0.07631073  0.16424756     0.36400
C1318       C  0.90323551  0.10624954  0.31975102     0.36300
N1319       N  0.85101316  0.06986407  0.13144805    -0.44000
N1320       N  0.91366332  0.11111560  0.35142074    -0.44000
C1321       C  0.42555461  0.86121292  0.24757389    -0.00400
C1322       C  0.39340442  0.84988374  0.22507710    -0.12300
C1323       C  0.36250826  0.87561632  0.21823430     0.01800
C1324       C  0.36304463  0.91329321  0.23460958    -0.00500
C1325       C  0.39445673  0.92440768  0.25768468    -0.12200
C1326       C  0.42575846  0.89929629  0.26380544     0.01700
H1327       H  0.39226966  0.82084092  0.21279676     0.14700
H1328       H  0.39546921  0.95370677  0.26944133     0.14700
C1329       C  0.45812651  0.91455210  0.28560173     0.36400
C1330       C  0.33017481  0.86245048  0.19506792     0.36300
N1331       N  0.48406141  0.92700481  0.30288464    -0.44000
N1332       N  0.30416023  0.85185496  0.17669248    -0.44000
C1333       C  0.42542239  0.14072277  0.25664564    -0.00400
C1334       C  0.41706357  0.13165717  0.21781804    -0.12300
C1335       C  0.39062530  0.10233766  0.20845158     0.01800
C1336       C  0.36998912  0.08304136  0.23834689    -0.00500
C1337       C  0.37757972  0.09287447  0.27721969    -0.12200
C1338       C  0.40585291  0.12050169  0.28662287     0.01700
H1339       H  0.43250494  0.14641202  0.19468009     0.14700
H1340       H  0.36250659  0.07776787  0.30036532     0.14700
C1341       C  0.41454855  0.12683103  0.32727438     0.36400
C1342       C  0.38599898  0.09259782  0.16782340     0.36300
N1343       N  0.42164456  0.13107694  0.35994778    -0.44000
N1344       N  0.38346796  0.08517534  0.13503814    -0.44000
C1345       C  0.23986869  0.84244766  0.06287938    -0.00400
C1346       C  0.27822801  0.85432119  0.06931625    -0.12300
C1347       C  0.28621825  0.88972508  0.08847376     0.01800
C1348       C  0.25537380  0.91352853  0.10179921    -0.00500
C1349       C  0.21732697  0.90088015  0.09601837    -0.12200
C1350       C  0.20930953  0.86621548  0.07691276     0.01700
H1351       H  0.30185674  0.83681017  0.05800822     0.14700
H1352       H  0.19322102  0.91851982  0.10617955     0.14700
C1353       C  0.16888790  0.85682784  0.07178512     0.36400
C1354       C  0.32609612  0.90045642  0.09457723     0.36300
N1355       N  0.13606045  0.85109387  0.06845142    -0.44000
N1356       N  0.35809297  0.90897689  0.09959153    -0.44000
C1357       C  0.25954452  0.16402487  0.05868461    -0.00400
C1358       C  0.27112603  0.16714680  0.09771969    -0.12300
C1359       C  0.28031040  0.13369952  0.11934042     0.01800
C1360       C  0.27763852  0.09665982  0.10167751    -0.00500
C1361       C  0.26769998  0.09382504  0.06242763    -0.12200
C1362       C  0.25872716  0.12692551  0.04084284     0.01700
H1363       H  0.27123526  0.19542678  0.11175164     0.14700
H1364       H  0.26535756  0.06533021  0.04898516     0.14700
C1365       C  0.24634672  0.12089799  0.00121622     0.36400
C1366       C  0.28907053  0.13779736  0.16026030     0.36300
N1367       N  0.23643232  0.11368295  0.96985914    -0.44000
N1368       N  0.29588156  0.14108069  0.19310319    -0.44000
C1369       C  0.17585144  0.93050243  0.24361759    -0.00400
C1370       C  0.15270859  0.91946859  0.21194827    -0.12300
C1371       C  0.11706528  0.90151278  0.21724006     0.01800
C1372       C  0.10377032  0.89305941  0.25533383    -0.00500
C1373       C  0.12818566  0.90167319  0.28713857    -0.12200
C1374       C  0.16384984  0.92073636  0.28156971     0.01700
H1375       H  0.16181598  0.92668482  0.18257354     0.14700
H1376       H  0.11874828  0.89497597  0.31645542     0.14700
C1377       C  0.18614958  0.93233244  0.31511860     0.36400
C1378       C  0.09500756  0.89258926  0.18255364     0.36300
N1379       N  0.20402604  0.94174810  0.34201863    -0.44000
N1380       N  0.07749697  0.88571255  0.15464070    -0.44000
C1381       C  0.10036975  0.10846138  0.26188393    -0.00400
C1382       C  0.10553413  0.08680783  0.22757203    -0.12300
C1383       C  0.14174568  0.07251743  0.21682385     0.01800
C1384       C  0.17429203  0.07909971  0.24095928    -0.00500
C1385       C  0.16909277  0.09859094  0.27649387    -0.12200
C1386       C  0.13262323  0.11368505  0.28698440     0.01700
H1387       H  0.08130727  0.08186102  0.20809166     0.14700
H1388       H  0.19366575  0.10257407  0.29574469     0.14700
C1389       C  0.12957316  0.13460707  0.32332978     0.36400
C1390       C  0.14422851  0.05085595  0.18074703     0.36300
N1391       N  0.12730677  0.15116534  0.35261587    -0.44000
N1392       N  0.14601184  0.03360102  0.15182388    -0.44000
loop_ 
_geom_bond_atom_site_label_1 
_geom_bond_atom_site_label_2 
_geom_bond_distance 
_geom_bond_site_symmetry_2 
_ccdc_geom_bond_type 
O1          Cr19   1.950   1_565  S
O1            C9   1.257       .  A
O2          Cr19   1.980   1_565  S
O2            C3   1.260       .  A
C3            O4   1.269       .  A
C3         C1369   1.480       .  S
O4          Cr20   2.013   1_565  S
O5          Cr20   2.025   1_565  S
O5            C6   1.272       .  A
C6            O7   1.256       .  A
C6         C1324   1.475       .  S
O7          Cr21   1.962       .  S
O8          Cr21   2.020       .  S
O8            C9   1.268       .  A
C9         C1348   1.485       .  S
O10         Cr19   1.994       .  S
O10          C18   1.259       .  A
O11         Cr19   1.962       .  S
O11          C12   1.257       .  A
C12          O13   1.270       .  A
C12        C1384   1.478       .  S
O13         Cr20   2.032       .  S
O14         Cr20   1.995       .  S
O14          C15   1.267       .  A
C15          O16   1.264       .  A
C15        C1336   1.482       .  S
O16         Cr21   1.997   1_545  S
O17         Cr21   1.980   1_545  S
O17          C18   1.253       .  A
C18        C1360   1.469       .  S
Cr19         O22   1.756       .  S
Cr20         O22   1.773       .  S
Cr21         O22   1.766   1_565  S
O23         Cr41   1.954   1_545  S
O23          C31   1.255       .  A
O24         Cr41   1.971   1_545  S
O24          C25   1.254       .  A
C25          O26   1.274       .  A
C25        C1309   1.485       .  S
O26         Cr42   2.034       .  S
O27         Cr42   2.028       .  S
O27          C28   1.274       .  A
C28          O29   1.259       .  A
C28        C1261   1.500       .  S
O29         Cr43   1.970       .  S
O30         Cr43   2.016       .  S
O30          C31   1.268       .  A
C31        C1273   1.481       .  S
O32         Cr41   1.982       .  S
O32          C40   1.256       .  A
O33         Cr41   1.968       .  S
O33          C34   1.262       .  A
C34          O35   1.270       .  A
C34        C1297   1.473       .  S
O35         Cr42   2.019   1_565  S
O36         Cr42   2.017   1_565  S
O36          C37   1.270       .  A
C37          O38   1.259       .  A
C37        C1252   1.501       .  S
O38         Cr43   1.981   1_565  S
O39         Cr43   2.005   1_565  S
O39          C40   1.259       .  A
C40        C1288   1.489       .  S
Cr41         O44   1.757       .  S
Cr42         O44   1.764   1_545  S
Cr43         O44   1.773   1_545  S
O45         Cr63   1.969       .  S
O45          C53   1.253       .  A
O46         Cr63   1.969       .  S
O46          C47   1.260       .  A
C47          O48   1.264       .  A
C47        C1240   1.473       .  S
O48         Cr64   2.001       .  S
O49         Cr64   2.019       .  S
O49          C50   1.273       .  A
C50          O51   1.256       .  A
C50        C1189   1.476       .  S
O51         Cr65   1.954       .  S
O52         Cr65   2.003       .  S
O52          C53   1.261       .  A
C53        C1225   1.468       .  S
O54         Cr63   1.999   1_554  S
O54          C62   1.266       .  A
O55         Cr63   1.968   1_554  S
O55          C56   1.259       .  A
C56          O57   1.268       .  A
C56        C1357   1.473       .  S
O57         Cr64   2.024   1_554  S
O58         Cr64   2.006   1_554  S
O58          C59   1.266       .  A
C59          O60   1.260       .  A
C59        C1204   1.476       .  S
O60         Cr65   1.984   1_554  S
O61         Cr65   1.969   1_554  S
O61          C62   1.257       .  A
C62        C1213   1.469       .  S
Cr63         O66   1.759       .  S
Cr64         O66   1.770       .  S
Cr65         O66   1.775       .  S
O67         Cr85   1.950   1_554  S
O67          C75   1.255       .  A
O68         Cr85   1.971   1_554  S
O68          C69   1.255       .  A
C69          O70   1.270       .  A
C69        C1345   1.480       .  S
O70         Cr86   2.021   1_554  S
O71         Cr86   2.026   1_554  S
O71          C72   1.272       .  A
C72          O73   1.259       .  A
C72        C1132   1.495       .  S
O73         Cr87   1.964   1_554  S
O74         Cr87   2.010   1_554  S
O74          C75   1.267       .  A
C75        C1165   1.478       .  S
O76         Cr85   1.983       .  S
O76          C84   1.257       .  A
O77         Cr85   1.966       .  S
O77          C78   1.262       .  A
C78          O79   1.271       .  A
C78        C1177   1.492       .  S
O79         Cr86   2.026       .  S
O80         Cr86   2.008       .  S
O80          C81   1.268       .  A
C81          O82   1.262       .  A
C81        C1141   1.487       .  S
O82         Cr87   1.988       .  S
O83         Cr87   1.991       .  S
O83          C84   1.257       .  A
C84        C1156   1.477       .  S
Cr85         O88   1.762       .  S
Cr86         O88   1.764       .  S
Cr87         O88   1.776       .  S
O89        Cr107   1.976       .  S
O89          C97   1.260       .  A
O90        Cr107   1.968       .  S
O90          C91   1.258       .  A
C91          O92   1.269       .  A
C91        C1228   1.488       .  S
O92        Cr108   2.013       .  S
O93        Cr108   2.036       .  S
O93          C94   1.278       .  A
C94          O95   1.259       .  A
C94        C1081   1.494       .  S
O95        Cr109   1.962       .  S
O96        Cr109   2.004       .  S
O96          C97   1.265       .  A
C97        C1105   1.480       .  S
O98        Cr107   1.991   1_655  S
O98         C106   1.262       .  A
O99        Cr107   1.979   1_655  S
O99         C100   1.265       .  A
C100        O101   1.271       .  A
C100       C1117   1.483       .  S
O101       Cr108   2.020   1_655  S
O102       Cr108   1.997   1_655  S
O102        C103   1.262       .  A
C103        O104   1.259       .  A
C103       C1069   1.492       .  S
O104       Cr109   1.985   1_655  S
O105       Cr109   1.991   1_655  S
O105        C106   1.258       .  A
C106       C1096   1.486       .  S
Cr107       O110   1.762       .  S
Cr108       O110   1.766       .  S
Cr109       O110   1.778       .  S
O111       Cr129   1.965   1_655  S
O111        C119   1.261       .  A
O112       Cr129   1.976   1_655  S
O112        C113   1.259       .  A
C113        O114   1.269       .  A
C113       C1060   1.493       .  S
O114       Cr130   2.017   1_655  S
O115       Cr130   2.018   1_655  S
O115        C116   1.270       .  A
C116        O117   1.257       .  A
C116       C1033   1.479       .  S
O117       Cr131   1.949   1_655  S
O118       Cr131   2.016   1_655  S
O118        C119   1.267       .  A
C119       C1312   1.488       .  S
O120       Cr129   1.992       .  S
O120        C128   1.262       .  A
O121       Cr129   1.976       .  S
O121        C122   1.264       .  A
C122        O123   1.268       .  A
C122       C1216   1.484       .  S
O123       Cr130   2.004       .  S
O124       Cr130   1.996       .  S
O124        C125   1.262       .  A
C125        O126   1.261       .  A
C125       C1045   1.481       .  S
O126       Cr131   1.990       .  S
O127       Cr131   1.987       .  S
O127        C128   1.256       .  A
C128       C1381   1.489       .  S
Cr129       O132   1.755       .  S
Cr130       O132   1.768       .  S
Cr131       O132   1.773       .  S
O133       Cr151   1.985       .  S
O133        C141   1.255       .  A
O134       Cr151   1.971       .  S
O134        C135   1.265       .  A
C135        O136   1.270       .  A
C135       C1168   1.473       .  S
O136       Cr152   2.011       .  S
O137       Cr152   1.989       .  S
O137        C138   1.265       .  A
C138        O139   1.260       .  A
C138        C997   1.484       .  S
O139       Cr153   1.982       .  S
O140       Cr153   2.004       .  S
O140        C141   1.256       .  A
C141       C1372   1.491       .  S
O142       Cr151   1.951   1_655  S
O142        C150   1.257       .  A
O143       Cr151   1.971   1_655  S
O143        C144   1.254       .  A
C144        O145   1.271       .  A
C144       C1024   1.481       .  S
O145       Cr152   2.025   1_655  S
O146       Cr152   2.023   1_655  S
O146        C147   1.272       .  A
C147        O148   1.258       .  A
C147       C1012   1.492       .  S
O148       Cr153   1.966   1_655  S
O149       Cr153   2.013   1_655  S
O149        C150   1.269       .  A
C150       C1300   1.479       .  S
Cr151       O154   1.760       .  S
Cr152       O154   1.767       .  S
Cr153       O154   1.775       .  S
O155       Cr173   2.006       .  S
O155        C163   1.264       .  A
O156       Cr173   1.973       .  S
O156        C157   1.259       .  A
C157        O158   1.269       .  A
C157        C985   1.478       .  S
O158       Cr174   2.028       .  S
O159       Cr174   1.985       .  S
O159        C160   1.265       .  A
C160        O161   1.265       .  A
C160        C949   1.484       .  S
O161       Cr175   1.992       .  S
O162       Cr175   1.987       .  S
O162        C163   1.256       .  A
C163        C973   1.480       .  S
O164       Cr173   1.950   1_554  S
O164        C172   1.256       .  A
O165       Cr173   1.990   1_554  S
O165        C166   1.266       .  A
C166        O167   1.266       .  A
C166       C1285   1.478       .  S
O167       Cr174   1.999   1_554  S
O168       Cr174   2.021   1_554  S
O168        C169   1.269       .  A
C169        O170   1.256       .  A
C169        C961   1.480       .  S
O170       Cr175   1.966   1_554  S
O171       Cr175   2.017   1_554  S
O171        C172   1.267       .  A
C172       C1021   1.485       .  S
Cr173       O176   1.756       .  S
Cr174       O176   1.771       .  S
Cr175       O176   1.769       .  S
O177       Cr195   1.952   1_545  S
O177        C185   1.256       .  A
O178       Cr195   1.973   1_545  S
O178        C179   1.255       .  A
C179        O180   1.265       .  A
C179       C1108   1.462       .  S
O180       Cr196   2.005   1_545  S
O181       Cr196   2.026   1_545  S
O181        C182   1.272       .  A
C182        O183   1.258       .  A
C182        C913   1.494       .  S
O183       Cr197   1.959       .  S
O184       Cr197   2.028       .  S
O184        C185   1.273       .  A
C185       C1237   1.490       .  S
O186       Cr195   1.988       .  S
O186        C194   1.257       .  A
O187       Cr195   1.962       .  S
O187        C188   1.260       .  A
C188        O189   1.272       .  A
C188        C937   1.470       .  S
O189       Cr196   2.032       .  S
O190       Cr196   1.980       .  S
O190        C191   1.263       .  A
C191        O192   1.265       .  A
C191        C925   1.488       .  S
O192       Cr197   2.000   1_565  S
O193       Cr197   1.992   1_565  S
O193        C194   1.257       .  A
C194       C1180   1.489       .  S
Cr195       O198   1.759   1_565  S
Cr196       O198   1.767   1_565  S
Cr197       O198   1.770       .  S
O199       Cr217   1.959   1_655  S
O199        C207   1.257       .  A
O200       Cr217   1.982   1_655  S
O200        C201   1.261       .  A
C201        O202   1.270       .  A
C201        C976   1.490       .  S
O202       Cr218   2.015   1_655  S
O203       Cr218   2.022   1_655  S
O203        C204   1.271       .  A
C204        O205   1.257       .  A
C204        C877   1.483       .  S
O205       Cr219   1.952       .  S
O206       Cr219   2.021       .  S
O206        C207   1.269       .  A
C207        C901   1.494       .  S
O208       Cr217   1.993       .  S
O208        C216   1.261       .  A
O209       Cr217   1.965       .  S
O209        C210   1.260       .  A
C210        O211   1.268       .  A
C210       C1153   1.487       .  S
O211       Cr218   2.013       .  S
O212       Cr218   2.002       .  S
O212        C213   1.264       .  A
C213        O214   1.263       .  A
C213        C892   1.486       .  S
O214       Cr219   2.000   1_455  S
O215       Cr219   1.983   1_455  S
O215        C216   1.256       .  A
C216        C940   1.480       .  S
Cr217       O220   1.755       .  S
Cr218       O220   1.767       .  S
Cr219       O220   1.769   1_655  S
O221       Cr239   2.000       .  S
O221        C229   1.262       .  A
O222       Cr239   1.975       .  S
O222        C223   1.262       .  A
C223        O224   1.269       .  A
C223       C1276   1.477       .  S
O224       Cr240   2.019   1_554  S
O225       Cr240   1.985   1_554  S
O225        C226   1.263       .  A
C226        O227   1.265       .  A
C226        C841   1.490       .  S
O227       Cr241   1.993   1_554  S
O228       Cr241   1.991   1_554  S
O228        C229   1.255       .  A
C229       C1057   1.479       .  S
O230       Cr239   1.959   1_556  S
O230        C238   1.258       .  A
O231       Cr239   1.982   1_556  S
O231        C232   1.261       .  A
C232        O233   1.270       .  A
C232        C865   1.490       .  S
O233       Cr240   2.013       .  S
O234       Cr240   2.028       .  S
O234        C235   1.272       .  A
C235        O236   1.257       .  A
C235        C853   1.492       .  S
O236       Cr241   1.970       .  S
O237       Cr241   2.019       .  S
O237        C238   1.270       .  A
C238       C1120   1.487       .  S
Cr239       O242   1.757   1_554  S
Cr240       O242   1.768       .  S
Cr241       O242   1.768       .  S
O243       Cr261   1.969   1_565  S
O243        C251   1.258       .  A
O244       Cr261   1.976   1_565  S
O244        C245   1.255       .  A
C245        O246   1.269       .  A
C245        C904   1.472       .  S
O246       Cr262   2.016   1_565  S
O247       Cr262   2.044   1_565  S
O247        C248   1.276       .  A
C248        O249   1.258       .  A
C248        C820   1.489       .  S
O249       Cr263   1.956       .  S
O250       Cr263   2.014       .  S
O250        C251   1.269       .  A
C251        C988   1.474       .  S
O252       Cr261   1.991       .  S
O252        C260   1.261       .  A
O253       Cr261   1.962       .  S
O253        C254   1.260       .  A
C254        O255   1.274       .  A
C254       C1093   1.487       .  S
O255       Cr262   2.035       .  S
O256       Cr262   1.997       .  S
O256        C257   1.264       .  A
C257        O258   1.261       .  A
C257        C832   1.478       .  S
O258       Cr263   1.987   1_545  S
O259       Cr263   1.998   1_545  S
O259        C260   1.257       .  A
C260        C868   1.494       .  S
Cr261       O264   1.753       .  S
Cr262       O264   1.766       .  S
Cr263       O264   1.766   1_565  S
O265       Cr283   1.957       .  S
O265        C273   1.260       .  A
O266       Cr283   1.994       .  S
O266        C267   1.259       .  A
C267        O268   1.265       .  A
C267        C796   1.476       .  S
O268       Cr284   2.008       .  S
O269       Cr284   2.035       .  S
O269        C270   1.276       .  A
C270        O271   1.259       .  A
C270       C1264   1.501       .  S
O271       Cr285   1.965       .  S
O272       Cr285   2.011       .  S
O272        C273   1.269       .  A
C273        C769   1.480       .  S
O274       Cr283   1.992       .  S
O274        C282   1.258       .  A
O275       Cr283   1.952       .  S
O275        C276   1.255       .  A
C276        O277   1.277       .  A
C276        C808   1.489       .  S
O277       Cr284   2.050       .  S
O278       Cr284   1.993       .  S
O278        C279   1.265       .  A
C279        O280   1.261       .  A
C279       C1333   1.480       .  S
O280       Cr285   1.987       .  S
O281       Cr285   1.994       .  S
O281        C282   1.257       .  A
C282        C781   1.491       .  S
Cr283       O286   1.758       .  S
Cr284       O286   1.766       .  S
Cr285       O286   1.766       .  S
O287       Cr305   1.963       .  S
O287        C295   1.260       .  A
O288       Cr305   1.992       .  S
O288        C289   1.260       .  A
C289        O290   1.266       .  A
C289        C745   1.472       .  S
O290       Cr306   2.005       .  S
O291       Cr306   2.036       .  S
O291        C292   1.276       .  A
C292        O293   1.259       .  A
C292       C1129   1.491       .  S
O293       Cr307   1.956       .  S
O294       Cr307   2.018       .  S
O294        C295   1.270       .  A
C295        C733   1.484       .  S
O296       Cr305   1.989       .  S
O296        C304   1.261       .  A
O297       Cr305   1.962       .  S
O297        C298   1.256       .  A
C298        O299   1.272       .  A
C298        C760   1.480       .  S
O299       Cr306   2.036       .  S
O300       Cr306   1.996       .  S
O300        C301   1.263       .  A
C301        O302   1.262       .  A
C301       C1201   1.483       .  S
O302       Cr307   1.990       .  S
O303       Cr307   1.991       .  S
O303        C304   1.256       .  A
C304        C805   1.488       .  S
Cr305       O308   1.754       .  S
Cr306       O308   1.764       .  S
Cr307       O308   1.769       .  S
O309       Cr327   1.965       .  S
O309        C317   1.255       .  A
O310       Cr327   1.971       .  S
O310        C311   1.257       .  A
C311        O312   1.268       .  A
C311        C721   1.476       .  S
O312       Cr328   2.013       .  S
O313       Cr328   2.040       .  S
O313        C314   1.278       .  A
C314        O315   1.258       .  A
C314       C1084   1.491       .  S
O315       Cr329   1.955       .  S
O316       Cr329   2.018       .  S
O316        C317   1.266       .  A
C317        C709   1.477       .  S
O318       Cr327   1.991       .  S
O318        C326   1.263       .  A
O319       Cr327   1.967       .  S
O319        C320   1.262       .  A
C320        O321   1.272       .  A
C320        C784   1.478       .  S
O321       Cr328   2.028       .  S
O322       Cr328   2.005       .  S
O322        C323   1.264       .  A
C323        O324   1.259       .  A
C323       C1048   1.482       .  S
O324       Cr329   1.985       .  S
O325       Cr329   1.989       .  S
O325        C326   1.257       .  A
C326        C757   1.490       .  S
Cr327       O330   1.759       .  S
Cr328       O330   1.767       .  S
Cr329       O330   1.774       .  S
O331       Cr349   1.969       .  S
O331        C339   1.257       .  A
O332       Cr349   1.976       .  S
O332        C333   1.258       .  A
C333        O334   1.268       .  A
C333        C685   1.484       .  S
O334       Cr350   2.014       .  S
O335       Cr350   2.035       .  S
O335        C336   1.277       .  A
C336        O337   1.255       .  A
C336       C1000   1.488       .  S
O337       Cr351   1.949       .  S
O338       Cr351   2.017       .  S
O338        C339   1.268       .  A
C339        C748   1.481       .  S
O340       Cr349   1.995       .  S
O340        C348   1.263       .  A
O341       Cr349   1.963       .  S
O341        C342   1.262       .  A
C342        O343   1.274       .  A
C342        C697   1.489       .  S
O343       Cr350   2.033       .  S
O344       Cr350   2.009       .  S
O344        C345   1.266       .  A
C345        O346   1.262       .  A
C345        C889   1.491       .  S
O346       Cr351   1.992       .  S
O347       Cr351   1.986       .  S
O347        C348   1.257       .  A
C348        C673   1.490       .  S
Cr349       O352   1.757       .  S
Cr350       O352   1.765       .  S
Cr351       O352   1.771       .  S
O353       Cr371   1.977       .  S
O353        C361   1.258       .  A
O354       Cr371   1.989       .  S
O354        C355   1.262       .  A
C355        O356   1.266       .  A
C355        C712   1.473       .  S
O356       Cr372   2.000       .  S
O357       Cr372   2.028       .  S
O357        C358   1.274       .  A
C358        O359   1.255       .  A
C358       C1192   1.483       .  S
O359       Cr373   1.946       .  S
O360       Cr373   2.030       .  S
O360        C361   1.270       .  A
C361        C649   1.495       .  S
O362       Cr371   2.007       .  S
O362        C370   1.267       .  A
O363       Cr371   1.968       .  S
O363        C364   1.260       .  A
C364        O365   1.267       .  A
C364        C676   1.479       .  S
O365       Cr372   2.019       .  S
O366       Cr372   2.000       .  S
O366        C367   1.264       .  A
C367        O368   1.264       .  A
C367       C1144   1.488       .  S
O368       Cr373   2.002       .  S
O369       Cr373   1.972       .  S
O369        C370   1.254       .  A
C370        C661   1.473       .  S
Cr371       O374   1.756       .  S
Cr372       O374   1.769       .  S
Cr373       O374   1.767       .  S
O375       Cr393   1.988       .  S
O375        C383   1.260       .  A
O376       Cr393   1.966       .  S
O376        C377   1.259       .  A
C377        O378   1.271       .  A
C377        C736   1.477       .  S
O378       Cr394   2.028       .  S
O379       Cr394   1.997       .  S
O379        C380   1.265       .  A
C380        O381   1.261       .  A
C380       C1321   1.493       .  S
O381       Cr395   1.988       .  S
O382       Cr395   2.000       .  S
O382        C383   1.258       .  A
C383        C688   1.490       .  S
O384       Cr393   1.958       .  S
O384        C392   1.258       .  A
O385       Cr393   1.981       .  S
O385        C386   1.261       .  A
C386        O387   1.268       .  A
C386        C637   1.479       .  S
O387       Cr394   2.009       .  S
O388       Cr394   2.033       .  S
O388        C389   1.275       .  A
C389        O390   1.260       .  A
C389       C1249   1.488       .  S
O390       Cr395   1.971       .  S
O391       Cr395   2.020       .  S
O391        C392   1.269       .  A
C392        C625   1.483       .  S
Cr393       O396   1.754       .  S
Cr394       O396   1.769       .  S
Cr395       O396   1.768       .  S
O397       Cr415   1.974       .  S
O397        C405   1.259       .  A
O398       Cr415   1.964       .  S
O398        C399   1.258       .  A
C399        O400   1.268       .  A
C399        C601   1.490       .  S
O400       Cr416   2.014       .  S
O401       Cr416   2.022       .  S
O401        C402   1.272       .  A
C402        O403   1.258       .  A
C402        C844   1.475       .  S
O403       Cr417   1.958       .  S
O404       Cr417   2.015       .  S
O404        C405   1.268       .  A
C405        C793   1.481       .  S
O406       Cr415   1.994       .  S
O406        C414   1.260       .  A
O407       Cr415   1.976       .  S
O407        C408   1.263       .  A
C408        O409   1.268       .  A
C408        C613   1.473       .  S
O409       Cr416   2.010       .  S
O410       Cr416   1.990       .  S
O410        C411   1.261       .  A
C411        O412   1.262       .  A
C411        C964   1.492       .  S
O412       Cr417   1.989       .  S
O413       Cr417   1.997       .  S
O413        C414   1.258       .  A
C414        C640   1.489       .  S
Cr415       O418   1.754       .  S
Cr416       O418   1.772       .  S
Cr417       O418   1.771       .  S
O419       Cr437   1.986       .  S
O419        C427   1.258       .  A
O420       Cr437   1.968       .  S
O420        C421   1.263       .  A
C421        O422   1.272       .  A
C421        C589   1.487       .  S
O422       Cr438   2.023       .  S
O423       Cr438   1.979       .  S
O423        C424   1.261       .  A
C424        O425   1.264       .  A
C424        C880   1.482       .  S
O425       Cr439   1.990       .  S
O426       Cr439   2.000       .  S
O426        C427   1.255       .  A
C427        C580   1.488       .  S
O428       Cr437   1.952       .  S
O428        C436   1.258       .  A
O429       Cr437   1.975       .  S
O429        C430   1.258       .  A
C430        O431   1.267       .  A
C430        C628   1.473       .  S
O431       Cr438   2.010       .  S
O432       Cr438   2.027       .  S
O432        C433   1.273       .  A
C433        O434   1.258       .  A
C433       C1009   1.493       .  S
O434       Cr439   1.967       .  S
O435       Cr439   2.022       .  S
O435        C436   1.272       .  A
C436        C616   1.479       .  S
Cr437       O440   1.756       .  S
Cr438       O440   1.765       .  S
Cr439       O440   1.771       .  S
O441       Cr459   1.970       .  S
O441        C449   1.260       .  A
O442       Cr459   1.964       .  S
O442        C443   1.253       .  A
C443        O444   1.270       .  A
C443        C577   1.484       .  S
O444       Cr460   2.027       .  S
O445       Cr460   2.016       .  S
O445        C446   1.269       .  A
C446        O447   1.255       .  A
C446        C952   1.477       .  S
O447       Cr461   1.948       .  S
O448       Cr461   2.019       .  S
O448        C449   1.270       .  A
C449        C553   1.486       .  S
O450       Cr459   1.984       .  S
O450        C458   1.255       .  A
O451       Cr459   1.978       .  S
O451        C452   1.267       .  A
C452        O453   1.270       .  A
C452        C568   1.474       .  S
O453       Cr460   2.004       .  S
O454       Cr460   1.999       .  S
O454        C455   1.265       .  A
C455        O456   1.262       .  A
C455        C856   1.496       .  S
O456       Cr461   1.992       .  S
O457       Cr461   1.987       .  S
O457        C458   1.255       .  A
C458        C541   1.481       .  S
Cr459       O462   1.758       .  S
Cr460       O462   1.767       .  S
Cr461       O462   1.772       .  S
O463       Cr481   1.981       .  S
O463        C471   1.254       .  A
O464       Cr481   1.970       .  S
O464        C465   1.262       .  A
C465        O466   1.269       .  A
C465        C556   1.477       .  S
O466       Cr482   2.023       .  S
O467       Cr482   1.993       .  S
O467        C468   1.265       .  A
C468        O469   1.265       .  A
C468        C817   1.501       .  S
O469       Cr483   2.002       .  S
O470       Cr483   1.992       .  S
O470        C471   1.255       .  A
C471        C592   1.485       .  S
O472       Cr481   1.957       .  S
O472        C480   1.257       .  A
O473       Cr481   1.958       .  S
O473        C474   1.257       .  A
C474        O475   1.270       .  A
C474        C664   1.489       .  S
O475       Cr482   2.022       .  S
O476       Cr482   2.022       .  S
O476        C477   1.272       .  A
C477        O478   1.258       .  A
C477        C928   1.492       .  S
O478       Cr483   1.962       .  S
O479       Cr483   2.030       .  S
O479        C480   1.274       .  A
C480        C700   1.497       .  S
Cr481       O484   1.758       .  S
Cr482       O484   1.771       .  S
Cr483       O484   1.773       .  S
O485       Cr503   1.949       .  S
O485        C493   1.258       .  A
O486       Cr503   2.005       .  S
O486        C487   1.264       .  A
C487        O488   1.269       .  A
C487        C652   1.482       .  S
O488       Cr504   2.009       .  S
O489       Cr504   2.028       .  S
O489        C490   1.272       .  A
C490        O491   1.258       .  A
C490        C916   1.492       .  S
O491       Cr505   1.960       .  S
O492       Cr505   2.019       .  S
O492        C493   1.269       .  A
C493        C724   1.491       .  S
O494       Cr503   2.004       .  S
O494        C502   1.263       .  A
O495       Cr503   1.956       .  S
O495        C496   1.257       .  A
C496        O497   1.268       .  A
C496        C544   1.477       .  S
O497       Cr504   2.022       .  S
O498       Cr504   1.997       .  S
O498        C499   1.264       .  A
C499        O500   1.263       .  A
C499        C829   1.480       .  S
O500       Cr505   1.991       .  S
O501       Cr505   1.988       .  S
O501        C502   1.255       .  A
C502        C529   1.478       .  S
Cr503       O506   1.756       .  S
Cr504       O506   1.767       .  S
Cr505       O506   1.766       .  S
O507       Cr525   1.998       .  S
O507        C515   1.261       .  A
O508       Cr525   1.960       .  S
O508        C509   1.259       .  A
C509        O510   1.270       .  A
C509        C772   1.473       .  S
O510       Cr526   2.020       .  S
O511       Cr526   1.973       .  S
O511        C512   1.260       .  A
C512        O513   1.265       .  A
C512       C1036   1.479       .  S
O513       Cr527   1.994       .  S
O514       Cr527   1.984       .  S
O514        C515   1.253       .  A
C515        C604   1.478       .  S
O516       Cr525   1.939       .  S
O516        C524   1.255       .  A
O517       Cr525   1.988       .  S
O517        C518   1.264       .  A
C518        O519   1.269       .  A
C518        C532   1.487       .  S
O519       Cr526   2.009       .  S
O520       Cr526   2.030       .  S
O520        C521   1.271       .  A
C521        O522   1.256       .  A
C521       C1072   1.486       .  S
O522       Cr527   1.957       .  S
O523       Cr527   2.018       .  S
O523        C524   1.271       .  A
C524        C565   1.479       .  S
Cr525       O528   1.756       .  S
Cr526       O528   1.766       .  S
Cr527       O528   1.765       .  S
C529        C530   1.410       .  A
C529        C534   1.404       .  A
C530        C531   1.411       .  A
C530        H535   1.085       .  S
C531        C532   1.412       .  A
C531        C538   1.444       .  S
C532        C533   1.409       .  A
C533        C534   1.394       .  A
C533        H536   1.084       .  S
C534        C537   1.445       .  S
C537        N539   1.157       .  T
C538        N540   1.158       .  T
C541        C542   1.408       .  A
C541        C546   1.416       .  A
C542        C543   1.404       .  A
C542        H547   1.084       .  S
C543        C544   1.411       .  A
C543        C550   1.443       .  S
C544        C545   1.403       .  A
C545        C546   1.389       .  A
C545        H548   1.085       .  S
C546        C549   1.446       .  S
C549        N551   1.158       .  T
C550        N552   1.157       .  T
C553        C554   1.404       .  A
C553        C558   1.416       .  A
C554        C555   1.405       .  A
C554        H559   1.085       .  S
C555        C556   1.417       .  A
C555        C562   1.443       .  S
C556        C557   1.397       .  A
C557        C558   1.395       .  A
C557        H560   1.085       .  S
C558        C561   1.440       .  S
C561        N563   1.156       .  T
C562        N564   1.157       .  T
C565        C566   1.411       .  A
C565        C570   1.409       .  A
C566        C567   1.394       .  A
C566        H571   1.085       .  S
C567        C568   1.404       .  A
C567        C574   1.443       .  S
C568        C569   1.410       .  A
C569        C570   1.400       .  A
C569        H572   1.085       .  S
C570        C573   1.444       .  S
C573        N575   1.157       .  T
C574        N576   1.157       .  T
C577        C578   1.406       .  A
C577        C582   1.419       .  A
C578        C579   1.413       .  A
C578        H583   1.084       .  S
C579        C580   1.418       .  A
C579        C586   1.442       .  S
C580        C581   1.400       .  A
C581        C582   1.386       .  A
C581        H584   1.085       .  S
C582        C585   1.448       .  S
C585        N587   1.157       .  T
C586        N588   1.157       .  T
C589        C590   1.405       .  A
C589        C594   1.417       .  A
C590        C591   1.395       .  A
C590        H595   1.085       .  S
C591        C592   1.417       .  A
C591        C598   1.446       .  S
C592        C593   1.405       .  A
C593        C594   1.404       .  A
C593        H596   1.085       .  S
C594        C597   1.444       .  S
C597        N599   1.157       .  T
C598        N600   1.158       .  T
C601        C602   1.412       .  A
C601        C606   1.411       .  A
C602        C603   1.390       .  A
C602        H607   1.085       .  S
C603        C604   1.405       .  A
C603        C610   1.446       .  S
C604        C605   1.411       .  A
C605        C606   1.411       .  A
C605        H608   1.085       .  S
C606        C609   1.442       .  S
C609        N611   1.157       .  T
C610        N612   1.157       .  T
C613        C614   1.407       .  A
C613        C618   1.405       .  A
C614        C615   1.400       .  A
C614        H619   1.085       .  S
C615        C616   1.410       .  A
C615        C622   1.444       .  S
C616        C617   1.409       .  A
C617        C618   1.396       .  A
C617        H620   1.085       .  S
C618        C621   1.444       .  S
C621        N623   1.157       .  T
C622        N624   1.157       .  T
C625        C626   1.410       .  A
C625        C630   1.413       .  A
C626        C627   1.408       .  A
C626        H631   1.084       .  S
C627        C628   1.408       .  A
C627        C634   1.443       .  S
C628        C629   1.403       .  A
C629        C630   1.391       .  A
C629        H632   1.086       .  S
C630        C633   1.446       .  S
C633        N635   1.157       .  T
C634        N636   1.157       .  T
C637        C638   1.400       .  A
C637        C642   1.410       .  A
C638        C639   1.391       .  A
C638        H643   1.085       .  S
C639        C640   1.417       .  A
C639        C646   1.446       .  S
C640        C641   1.411       .  A
C641        C642   1.412       .  A
C641        H644   1.084       .  S
C642        C645   1.442       .  S
C645        N647   1.157       .  T
C646        N648   1.158       .  T
C649        C650   1.410       .  A
C649        C654   1.414       .  A
C650        C651   1.405       .  A
C650        H655   1.084       .  S
C651        C652   1.407       .  A
C651        C658   1.443       .  S
C652        C653   1.407       .  A
C653        C654   1.408       .  A
C653        H656   1.085       .  S
C654        C657   1.443       .  S
C657        N659   1.157       .  T
C658        N660   1.157       .  T
C661        C662   1.411       .  A
C661        C666   1.401       .  A
C662        C663   1.410       .  A
C662        H667   1.084       .  S
C663        C664   1.410       .  A
C663        C670   1.442       .  S
C664        C665   1.413       .  A
C665        C666   1.387       .  A
C665        H668   1.085       .  S
C666        C669   1.446       .  S
C669        N671   1.157       .  T
C670        N672   1.157       .  T
C673        C674   1.404       .  A
C673        C678   1.420       .  A
C674        C675   1.393       .  A
C674        H679   1.085       .  S
C675        C676   1.414       .  A
C675        C682   1.446       .  S
C676        C677   1.403       .  A
C677        C678   1.407       .  A
C677        H680   1.085       .  S
C678        C681   1.444       .  S
C681        N683   1.157       .  T
C682        N684   1.157       .  T
C685        C686   1.407       .  A
C685        C690   1.415       .  A
C686        C687   1.413       .  A
C686        H691   1.084       .  S
C687        C688   1.417       .  A
C687        C694   1.442       .  S
C688        C689   1.402       .  A
C689        C690   1.390       .  A
C689        H692   1.085       .  S
C690        C693   1.446       .  S
C693        N695   1.157       .  T
C694        N696   1.157       .  T
C697        C698   1.402       .  A
C697        C702   1.417       .  A
C698        C699   1.398       .  A
C698        H703   1.086       .  S
C699        C700   1.423       .  A
C699        C706   1.445       .  S
C700        C701   1.407       .  A
C701        C702   1.406       .  A
C701        H704   1.084       .  S
C702        C705   1.444       .  S
C705        N707   1.157       .  T
C706        N708   1.157       .  T
C709        C710   1.408       .  A
C709        C714   1.406       .  A
C710        C711   1.402       .  A
C710        H715   1.085       .  S
C711        C712   1.406       .  A
C711        C718   1.444       .  S
C712        C713   1.407       .  A
C713        C714   1.401       .  A
C713        H716   1.085       .  S
C714        C717   1.443       .  S
C717        N719   1.157       .  T
C718        N720   1.157       .  T
C721        C722   1.406       .  A
C721        C726   1.411       .  A
C722        C723   1.411       .  A
C722        H727   1.084       .  S
C723        C724   1.418       .  A
C723        C730   1.443       .  S
C724        C725   1.403       .  A
C725        C726   1.388       .  A
C725        H728   1.085       .  S
C726        C729   1.443       .  S
C729        N731   1.157       .  T
C730        N732   1.157       .  T
C733        C734   1.408       .  A
C733        C738   1.414       .  A
C734        C735   1.397       .  A
C734        H739   1.085       .  S
C735        C736   1.408       .  A
C735        C742   1.444       .  S
C736        C737   1.406       .  A
C737        C738   1.403       .  A
C737        H740   1.085       .  S
C738        C741   1.444       .  S
C741        N743   1.157       .  T
C742        N744   1.157       .  T
C745        C746   1.398       .  A
C745        C750   1.413       .  A
C746        C747   1.402       .  A
C746        H751   1.085       .  S
C747        C748   1.418       .  A
C747        C754   1.444       .  S
C748        C749   1.400       .  A
C749        C750   1.401       .  A
C749        H752   1.085       .  S
C750        C753   1.441       .  S
C753        N755   1.156       .  T
C754        N756   1.157       .  T
C757        C758   1.403       .  A
C757        C762   1.420       .  A
C758        C759   1.390       .  A
C758        H763   1.085       .  S
C759        C760   1.415       .  A
C759        C766   1.447       .  S
C760        C761   1.404       .  A
C761        C762   1.409       .  A
C761        H764   1.084       .  S
C762        C765   1.443       .  S
C765        N767   1.157       .  T
C766        N768   1.157       .  T
C769        C770   1.408       .  A
C769        C774   1.413       .  A
C770        C771   1.395       .  A
C770        H775   1.085       .  S
C771        C772   1.408       .  A
C771        C778   1.444       .  S
C772        C773   1.405       .  A
C773        C774   1.399       .  A
C773        H776   1.085       .  S
C774        C777   1.444       .  S
C777        N779   1.157       .  T
C778        N780   1.157       .  T
C781        C782   1.411       .  A
C781        C786   1.416       .  A
C782        C783   1.407       .  A
C782        H787   1.083       .  S
C783        C784   1.408       .  A
C783        C790   1.443       .  S
C784        C785   1.402       .  A
C785        C786   1.397       .  A
C785        H788   1.086       .  S
C786        C789   1.445       .  S
C789        N791   1.157       .  T
C790        N792   1.157       .  T
C793        C794   1.399       .  A
C793        C798   1.416       .  A
C794        C795   1.400       .  A
C794        H799   1.085       .  S
C795        C796   1.413       .  A
C795        C802   1.441       .  S
C796        C797   1.401       .  A
C797        C798   1.404       .  A
C797        H800   1.085       .  S
C798        C801   1.443       .  S
C801        N803   1.157       .  T
C802        N804   1.156       .  T
C805        C806   1.401       .  A
C805        C810   1.417       .  A
C806        C807   1.389       .  A
C806        H811   1.085       .  S
C807        C808   1.420       .  A
C807        C814   1.446       .  S
C808        C809   1.407       .  A
C809        C810   1.410       .  A
C809        H812   1.084       .  S
C810        C813   1.443       .  S
C813        N815   1.157       .  T
C814        N816   1.157       .  T
C817        C818   1.413       .  A
C817        C822   1.418       .  A
C818        C819   1.406       .  A
C818        H823   1.084       .  S
C819        C820   1.411       .  A
C819        C826   1.444       .  S
C820        C821   1.406       .  A
C821        C822   1.402       .  A
C821        H824   1.085       .  S
C822        C825   1.444       .  S
C825        N827   1.157       .  T
C826        N828   1.157       .  T
C829        C830   1.406       .  A
C829        C834   1.413       .  A
C830        C831   1.406       .  A
C830        H835   1.085       .  S
C831        C832   1.412       .  A
C831        C838   1.444       .  S
C832        C833   1.403       .  A
C833        C834   1.396       .  A
C833        H836   1.085       .  S
C834        C837   1.446       .  S
C837        N839   1.157       .  T
C838        N840   1.157       .  T
C841        C842   1.410       .  A
C841        C846   1.417       .  A
C842        C843   1.398       .  A
C842        H847   1.084       .  S
C843        C844   1.409       .  A
C843        C850   1.445       .  S
C844        C845   1.404       .  A
C845        C846   1.400       .  A
C845        H848   1.086       .  S
C846        C849   1.444       .  S
C849        N851   1.157       .  T
C850        N852   1.157       .  T
C853        C854   1.403       .  A
C853        C858   1.418       .  A
C854        C855   1.401       .  A
C854        H859   1.085       .  S
C855        C856   1.421       .  A
C855        C862   1.445       .  S
C856        C857   1.406       .  A
C857        C858   1.405       .  A
C857        H860   1.084       .  S
C858        C861   1.444       .  S
C861        N863   1.157       .  T
C862        N864   1.157       .  T
C865        C866   1.407       .  A
C865        C870   1.419       .  A
C866        C867   1.412       .  A
C866        H871   1.084       .  S
C867        C868   1.420       .  A
C867        C874   1.443       .  S
C868        C869   1.402       .  A
C869        C870   1.389       .  A
C869        H872   1.084       .  S
C870        C873   1.448       .  S
C873        N875   1.157       .  T
C874        N876   1.157       .  T
C877        C878   1.409       .  A
C877        C882   1.412       .  A
C878        C879   1.397       .  A
C878        H883   1.085       .  S
C879        C880   1.412       .  A
C879        C886   1.445       .  S
C880        C881   1.407       .  A
C881        C882   1.398       .  A
C881        H884   1.084       .  S
C882        C885   1.444       .  S
C885        N887   1.157       .  T
C886        N888   1.157       .  T
C889        C890   1.407       .  A
C889        C894   1.414       .  A
C890        C891   1.400       .  A
C890        H895   1.085       .  S
C891        C892   1.412       .  A
C891        C898   1.445       .  S
C892        C893   1.407       .  A
C893        C894   1.409       .  A
C893        H896   1.085       .  S
C894        C897   1.443       .  S
C897        N899   1.157       .  T
C898        N900   1.157       .  T
C901        C902   1.412       .  A
C901        C906   1.420       .  A
C902        C903   1.409       .  A
C902        H907   1.084       .  S
C903        C904   1.408       .  A
C903        C910   1.443       .  S
C904        C905   1.399       .  A
C905        C906   1.393       .  A
C905        H908   1.084       .  S
C906        C909   1.446       .  S
C909        N911   1.158       .  T
C910        N912   1.157       .  T
C913        C914   1.411       .  A
C913        C918   1.414       .  A
C914        C915   1.401       .  A
C914        H919   1.084       .  S
C915        C916   1.412       .  A
C915        C922   1.444       .  S
C916        C917   1.410       .  A
C917        C918   1.401       .  A
C917        H920   1.085       .  S
C918        C921   1.444       .  S
C921        N923   1.157       .  T
C922        N924   1.157       .  T
C925        C926   1.403       .  A
C925        C930   1.417       .  A
C926        C927   1.399       .  A
C926        H931   1.085       .  S
C927        C928   1.419       .  A
C927        C934   1.443       .  S
C928        C929   1.406       .  A
C929        C930   1.401       .  A
C929        H932   1.084       .  S
C930        C933   1.444       .  S
C933        N935   1.157       .  T
C934        N936   1.156       .  T
C937        C938   1.402       .  A
C937        C942   1.407       .  A
C938        C939   1.392       .  A
C938        H943   1.085       .  S
C939        C940   1.410       .  A
C939        C946   1.445       .  S
C940        C941   1.411       .  A
C941        C942   1.407       .  A
C941        H944   1.085       .  S
C942        C945   1.443       .  S
C945        N947   1.157       .  T
C946        N948   1.157       .  T
C949        C950   1.410       .  A
C949        C954   1.412       .  A
C950        C951   1.398       .  A
C950        H955   1.085       .  S
C951        C952   1.409       .  A
C951        C958   1.445       .  S
C952        C953   1.407       .  A
C953        C954   1.397       .  A
C953        H956   1.086       .  S
C954        C957   1.444       .  S
C957        N959   1.157       .  T
C958        N960   1.158       .  T
C961        C962   1.405       .  A
C961        C966   1.410       .  A
C962        C963   1.403       .  A
C962        H967   1.085       .  S
C963        C964   1.417       .  A
C963        C970   1.444       .  S
C964        C965   1.410       .  A
C965        C966   1.397       .  A
C965        H968   1.084       .  S
C966        C969   1.445       .  S
C969        N971   1.157       .  T
C970        N972   1.157       .  T
C973        C974   1.409       .  A
C973        C978   1.405       .  A
C974        C975   1.411       .  A
C974        H979   1.085       .  S
C975        C976   1.412       .  A
C975        C982   1.443       .  S
C976        C977   1.410       .  A
C977        C978   1.396       .  A
C977        H980   1.085       .  S
C978        C981   1.445       .  S
C981        N983   1.157       .  T
C982        N984   1.157       .  T
C985        C986   1.402       .  A
C985        C990   1.415       .  A
C986        C987   1.402       .  A
C986        H991   1.085       .  S
C987        C988   1.414       .  A
C987        C994   1.443       .  S
C988        C989   1.394       .  A
C989        C990   1.396       .  A
C989        H992   1.085       .  S
C990        C993   1.436       .  S
C993        N995   1.154   1_556  T
C994        N996   1.157       .  T
C997        C998   1.399       .  A
C997       C1002   1.419       .  A
C998        C999   1.398       .  A
C998       H1003   1.085       .  S
C999       C1000   1.422       .  A
C999       C1006   1.444       .  S
C1000      C1001   1.402       .  A
C1001      C1002   1.400       .  A
C1001      H1004   1.085       .  S
C1002      C1005   1.445       .  S
C1005      N1007   1.157       .  T
C1006      N1008   1.157       .  T
C1009      C1010   1.404       .  A
C1009      C1014   1.419       .  A
C1010      C1011   1.403       .  A
C1010      H1015   1.085       .  S
C1011      C1012   1.419       .  A
C1011      C1018   1.445       .  S
C1012      C1013   1.403       .  A
C1013      C1014   1.403       .  A
C1013      H1016   1.085       .  S
C1014      C1017   1.444       .  S
C1017      N1019   1.157       .  T
C1018      N1020   1.157       .  T
C1021      C1022   1.399       .  A
C1021      C1026   1.417       .  A
C1022      C1023   1.388       .  A
C1022      H1027   1.086       .  S
C1023      C1024   1.417       .  A
C1023      C1030   1.445       .  S
C1024      C1025   1.407       .  A
C1025      C1026   1.413       .  A
C1025      H1028   1.084       .  S
C1026      C1029   1.443       .  S
C1029      N1031   1.157       .  T
C1030      N1032   1.157       .  T
C1033      C1034   1.407       .  A
C1033      C1038   1.412       .  A
C1034      C1035   1.395       .  A
C1034      H1039   1.085       .  S
C1035      C1036   1.412       .  A
C1035      C1042   1.445       .  S
C1036      C1037   1.407       .  A
C1037      C1038   1.397       .  A
C1037      H1040   1.085       .  S
C1038      C1041   1.444       .  S
C1041      N1043   1.157       .  T
C1042      N1044   1.157       .  T
C1045      C1046   1.406       .  A
C1045      C1050   1.412       .  A
C1046      C1047   1.406       .  A
C1046      H1051   1.085       .  S
C1047      C1048   1.412       .  A
C1047      C1054   1.443       .  S
C1048      C1049   1.405       .  A
C1049      C1050   1.397       .  A
C1049      H1052   1.085       .  S
C1050      C1053   1.446       .  S
C1053      N1055   1.157       .  T
C1054      N1056   1.157       .  T
C1057      C1058   1.393       .  A
C1057      C1062   1.415       .  A
C1058      C1059   1.393       .  A
C1058      H1063   1.086       .  S
C1059      C1060   1.423       .  A
C1059      C1066   1.445   1_655  S
C1060      C1061   1.407       .  A
C1061      C1062   1.412       .  A
C1061      H1064   1.084       .  S
C1062      C1065   1.443       .  S
C1065      N1067   1.157       .  T
C1066      N1068   1.157       .  T
C1069      C1070   1.411       .  A
C1069      C1074   1.413       .  A
C1070      C1071   1.401       .  A
C1070      H1075   1.085       .  S
C1071      C1072   1.412       .  A
C1071      C1078   1.445       .  S
C1072      C1073   1.408       .  A
C1073      C1074   1.401       .  A
C1073      H1076   1.085       .  S
C1074      C1077   1.444       .  S
C1077      N1079   1.157       .  T
C1078      N1080   1.158       .  T
C1081      C1082   1.403       .  A
C1081      C1086   1.422       .  A
C1082      C1083   1.400       .  A
C1082      H1087   1.085       .  S
C1083      C1084   1.420       .  A
C1083      C1090   1.445       .  S
C1084      C1085   1.400       .  A
C1085      C1086   1.402       .  A
C1085      H1088   1.085       .  S
C1086      C1089   1.442       .  S
C1089      N1091   1.156       .  T
C1090      N1092   1.157       .  T
C1093      C1094   1.408       .  A
C1093      C1098   1.418       .  A
C1094      C1095   1.407       .  A
C1094      H1099   1.084       .  S
C1095      C1096   1.415       .  A
C1095      C1102   1.443       .  S
C1096      C1097   1.402       .  A
C1097      C1098   1.392       .  A
C1097      H1100   1.085       .  S
C1098      C1101   1.446       .  S
C1101      N1103   1.157       .  T
C1102      N1104   1.157       .  T
C1105      C1106   1.402       .  A
C1105      C1110   1.417       .  A
C1106      C1107   1.399       .  A
C1106      H1111   1.084       .  S
C1107      C1108   1.412       .  A
C1107      C1114   1.444       .  S
C1108      C1109   1.398       .  A
C1109      C1110   1.399       .  A
C1109      H1112   1.085       .  S
C1110      C1113   1.442       .  S
C1113      N1115   1.156       .  T
C1114      N1116   1.157   1_545  T
C1117      C1118   1.408       .  A
C1117      C1122   1.407       .  A
C1118      C1119   1.404       .  A
C1118      H1123   1.095       .  S
C1119      C1120   1.413       .  A
C1119      C1126   1.443       .  S
C1120      C1121   1.409       .  A
C1121      C1122   1.398       .  A
C1121      H1124   1.095       .  S
C1122      C1125   1.442       .  S
C1125      N1127   1.157       .  T
C1126      N1128   1.157       .  T
C1129      C1130   1.409       .  A
C1129      C1134   1.411       .  A
C1130      C1131   1.400       .  A
C1130      H1135   1.085       .  S
C1131      C1132   1.415       .  A
C1131      C1138   1.445       .  S
C1132      C1133   1.412       .  A
C1133      C1134   1.403       .  A
C1133      H1136   1.084       .  S
C1134      C1137   1.444       .  S
C1137      N1139   1.157       .  T
C1138      N1140   1.157       .  T
C1141      C1142   1.406       .  A
C1141      C1146   1.416       .  A
C1142      C1143   1.409       .  A
C1142      H1147   1.085       .  S
C1143      C1144   1.415       .  A
C1143      C1150   1.444       .  S
C1144      C1145   1.404       .  A
C1145      C1146   1.399       .  A
C1145      H1148   1.085       .  S
C1146      C1149   1.446       .  S
C1149      N1151   1.158       .  T
C1150      N1152   1.157       .  T
C1153      C1154   1.413       .  A
C1153      C1158   1.415       .  A
C1154      C1155   1.403       .  A
C1154      H1159   1.084       .  S
C1155      C1156   1.407       .  A
C1155      C1162   1.443       .  S
C1156      C1157   1.403       .  A
C1157      C1158   1.393       .  A
C1157      H1160   1.082       .  S
C1158      C1161   1.446       .  S
C1161      N1163   1.157       .  T
C1162      N1164   1.157       .  T
C1165      C1166   1.409       .  A
C1165      C1170   1.409       .  A
C1166      C1167   1.394       .  A
C1166      H1171   1.084       .  S
C1167      C1168   1.405       .  A
C1167      C1174   1.445       .  S
C1168      C1169   1.409       .  A
C1169      C1170   1.400       .  A
C1169      H1172   1.085       .  S
C1170      C1173   1.443       .  S
C1173      N1175   1.157       .  T
C1174      N1176   1.157       .  T
C1177      C1178   1.406       .  A
C1177      C1182   1.417       .  A
C1178      C1179   1.396       .  A
C1178      H1183   1.084       .  S
C1179      C1180   1.417       .  A
C1179      C1186   1.446       .  S
C1180      C1181   1.406       .  A
C1181      C1182   1.405       .  A
C1181      H1184   1.085       .  S
C1182      C1185   1.444       .  S
C1185      N1187   1.157       .  T
C1186      N1188   1.158       .  T
C1189      C1190   1.398       .  A
C1189      C1194   1.417       .  A
C1190      C1191   1.393       .  A
C1190      H1195   1.085       .  S
C1191      C1192   1.420       .  A
C1191      C1198   1.444       .  S
C1192      C1193   1.404       .  A
C1193      C1194   1.399       .  A
C1193      H1196   1.085       .  S
C1194      C1197   1.445       .  S
C1197      N1199   1.157       .  T
C1198      N1200   1.157       .  T
C1201      C1202   1.404       .  A
C1201      C1206   1.415       .  A
C1202      C1203   1.396       .  A
C1202      H1207   1.085       .  S
C1203      C1204   1.412       .  A
C1203      C1210   1.446       .  S
C1204      C1205   1.404       .  A
C1205      C1206   1.407       .  A
C1205      H1208   1.085       .  S
C1206      C1209   1.444       .  S
C1209      N1211   1.157       .  T
C1210      N1212   1.157   1_554  T
C1213      C1214   1.401       .  A
C1213      C1218   1.407       .  A
C1214      C1215   1.396       .  A
C1214      H1219   1.084       .  S
C1215      C1216   1.411       .  A
C1215      C1222   1.441       .  S
C1216      C1217   1.411       .  A
C1217      C1218   1.400       .  A
C1217      H1220   1.084       .  S
C1218      C1221   1.444       .  S
C1221      N1223   1.157       .  T
C1222      N1224   1.156       .  T
C1225      C1226   1.408       .  A
C1225      C1230   1.400       .  A
C1226      C1227   1.406       .  A
C1226      H1231   1.089       .  S
C1227      C1228   1.410       .  A
C1227      C1234   1.442       .  S
C1228      C1229   1.414       .  A
C1229      C1230   1.395       .  A
C1229      H1232   1.089       .  S
C1230      C1233   1.445       .  S
C1233      N1235   1.157       .  T
C1234      N1236   1.157       .  T
C1237      C1238   1.410       .  A
C1237      C1242   1.419       .  A
C1238      C1239   1.408       .  A
C1238      H1243   1.084       .  S
C1239      C1240   1.408       .  A
C1239      C1246   1.443       .  S
C1240      C1241   1.400       .  A
C1241      C1242   1.394       .  A
C1241      H1244   1.086       .  S
C1242      C1245   1.446       .  S
C1245      N1247   1.158       .  T
C1246      N1248   1.157       .  T
C1249      C1250   1.399       .  A
C1249      C1254   1.414       .  A
C1250      C1251   1.401       .  A
C1250      H1255   1.085       .  S
C1251      C1252   1.427       .  A
C1251      C1258   1.445       .  S
C1252      C1253   1.407       .  A
C1253      C1254   1.407       .  A
C1253      H1256   1.084       .  S
C1254      C1257   1.442       .  S
C1257      N1259   1.157       .  T
C1258      N1260   1.158       .  T
C1261      C1262   1.404       .  A
C1261      C1266   1.422       .  A
C1262      C1263   1.402       .  A
C1262      H1267   1.085       .  S
C1263      C1264   1.422       .  A
C1263      C1270   1.445       .  S
C1264      C1265   1.406       .  A
C1265      C1266   1.405       .  A
C1265      H1268   1.085       .  S
C1266      C1269   1.445       .  S
C1269      N1271   1.158       .  T
C1270      N1272   1.158       .  T
C1273      C1274   1.409       .  A
C1273      C1278   1.408       .  A
C1274      C1275   1.398       .  A
C1274      H1279   1.085       .  S
C1275      C1276   1.406       .  A
C1275      C1282   1.443       .  S
C1276      C1277   1.410       .  A
C1277      C1278   1.403       .  A
C1277      H1280   1.085       .  S
C1278      C1281   1.443       .  S
C1281      N1283   1.157       .  T
C1282      N1284   1.157       .  T
C1285      C1286   1.400       .  A
C1285      C1290   1.411       .  A
C1286      C1287   1.392       .  A
C1286      H1291   1.086       .  S
C1287      C1288   1.419       .  A
C1287      C1294   1.446       .  S
C1288      C1289   1.409       .  A
C1289      C1290   1.409       .  A
C1289      H1292   1.084       .  S
C1290      C1293   1.443       .  S
C1293      N1295   1.157       .  T
C1294      N1296   1.158       .  T
C1297      C1298   1.409       .  A
C1297      C1302   1.405       .  A
C1298      C1299   1.402       .  A
C1298      H1303   1.085       .  S
C1299      C1300   1.409       .  A
C1299      C1306   1.444       .  S
C1300      C1301   1.409       .  A
C1301      C1302   1.395       .  A
C1301      H1304   1.085       .  S
C1302      C1305   1.445       .  S
C1305      N1307   1.157       .  T
C1306      N1308   1.157       .  T
C1309      C1310   1.407       .  A
C1309      C1314   1.420       .  A
C1310      C1311   1.415       .  A
C1310      H1315   1.084       .  S
C1311      C1312   1.419       .  A
C1311      C1318   1.443       .  S
C1312      C1313   1.396       .  A
C1313      C1314   1.388       .  A
C1313      H1316   1.086       .  S
C1314      C1317   1.443       .  S
C1317      N1319   1.157       .  T
C1318      N1320   1.157       .  T
C1321      C1322   1.408       .  A
C1321      C1326   1.422       .  A
C1322      C1323   1.404       .  A
C1322      H1327   1.084       .  S
C1323      C1324   1.412       .  A
C1323      C1330   1.445       .  S
C1324      C1325   1.397       .  A
C1325      C1326   1.397       .  A
C1325      H1328   1.085       .  S
C1326      C1329   1.445       .  S
C1329      N1331   1.157       .  T
C1330      N1332   1.157       .  T
C1333      C1334   1.399       .  A
C1333      C1338   1.417       .  A
C1334      C1335   1.400       .  A
C1334      H1339   1.085       .  S
C1335      C1336   1.418       .  A
C1335      C1342   1.443       .  S
C1336      C1337   1.401       .  A
C1337      C1338   1.402       .  A
C1337      H1340   1.085       .  S
C1338      C1341   1.444       .  S
C1341      N1343   1.157       .  T
C1342      N1344   1.157       .  T
C1345      C1346   1.405       .  A
C1345      C1350   1.417       .  A
C1346      C1347   1.411       .  A
C1346      H1351   1.084       .  S
C1347      C1348   1.417       .  A
C1347      C1354   1.443       .  S
C1348      C1349   1.400       .  A
C1349      C1350   1.388       .  A
C1349      H1352   1.086       .  S
C1350      C1353   1.445       .  S
C1353      N1355   1.157       .  T
C1354      N1356   1.157       .  T
C1357      C1358   1.403       .  A
C1357      C1362   1.415       .  A
C1358      C1359   1.406       .  A
C1358      H1363   1.085       .  S
C1359      C1360   1.413       .  A
C1359      C1366   1.444       .  S
C1360      C1361   1.394       .  A
C1361      C1362   1.394       .  A
C1361      H1364   1.086       .  S
C1362      C1365   1.441       .  S
C1365      N1367   1.156   1_554  T
C1366      N1368   1.157       .  T
C1369      C1370   1.402       .  A
C1369      C1374   1.409       .  A
C1370      C1371   1.392       .  A
C1370      H1375   1.086       .  S
C1371      C1372   1.418       .  A
C1371      C1378   1.447       .  S
C1372      C1373   1.411       .  A
C1373      C1374   1.411       .  A
C1373      H1376   1.084       .  S
C1374      C1377   1.442       .  S
C1377      N1379   1.157       .  T
C1378      N1380   1.158       .  T
C1381      C1382   1.404       .  A
C1381      C1386   1.420       .  A
C1382      C1383   1.392       .  A
C1382      H1387   1.085       .  S
C1383      C1384   1.415       .  A
C1383      C1390   1.447       .  S
C1384      C1385   1.402       .  A
C1385      C1386   1.407       .  A
C1385      H1388   1.084       .  S
C1386      C1389   1.443       .  S
C1389      N1391   1.157       .  T
C1390      N1392   1.157       .  T
