geometry optimzed in LAMMPS
_audit_creation_date              2020-12-01 
_audit_creation_method            'lammps2cif' 
_symmetry_space_group_name_H-M    'P1' 
_symmetry_Int_Tables_number       1 
_symmetry_cell_setting            triclinic 
loop_ 
_symmetry_equiv_pos_as_xyz 
  x,y,z 
_cell_length_a                    33.61246564 
_cell_length_b                    33.76876224801006 
_cell_length_c                    33.79510815806269 
_cell_angle_alpha                 90.70959561968024 
_cell_angle_beta                  89.45673230996246 
_cell_angle_gamma                 91.06911754715341 
loop_ 
_atom_site_label 
_atom_site_type_symbol 
_atom_site_fract_x 
_atom_site_fract_y 
_atom_site_fract_z 
_atom_site_charge 
O1          O  0.55109757  0.71590774  0.04154182    -0.73500
O2          O  0.46114978  0.63694229  0.03044950    -0.74500
O3          O  0.54630910  0.63305016  0.03008243    -0.63100
O4          O  0.46656722  0.72150656  0.04008086    -0.71600
O5          O  0.47139648  0.72921660  0.97517102    -0.71100
O6          O  0.54889361  0.63930074  0.96485025    -0.62400
O7          O  0.46351445  0.64377197  0.96529970    -0.74900
O8          O  0.55657624  0.72275179  0.97682052    -0.73600
Cu9        Cu  0.50604616  0.67659773  0.03765979     1.04600
Cu10       Cu  0.50984901  0.68407964  0.96818440     1.04300
C11         C  0.56928920  0.73067880  0.01176103     0.92700
C12         C  0.44843388  0.62724246  0.99616531     0.91800
C13         C  0.56076341  0.62283715  0.99630473     0.83900
C14         C  0.45746247  0.74023245  0.00882784     0.90200
C15         C  0.90170423  0.82421817  0.96396187     0.85900
C16         C  0.93511587  0.82803619  0.93445561    -0.54300
C17         C  0.96110489  0.85877043  0.94195630     0.08800
C18         C  0.95051292  0.88333543  0.98095062     0.19800
C19         C  0.92246419  0.82231959  0.00476624    -0.55100
C20         C  0.94962880  0.85219398  0.01346770     0.08900
C21         C  0.88340195  0.86572497  0.96153604    -0.54600
C22         C  0.90598453  0.89618354  0.97783220     0.09500
H23         H  0.93670957  0.80821534  0.90911402     0.14000
H24         H  0.97100382  0.90850801  0.98752185    -0.00300
H25         H  0.91515582  0.79845353  0.02478773     0.14300
H26         H  0.85203744  0.87010496  0.95702771     0.14100
C27         C  0.81555142  0.90731015  0.03495550     0.85900
C28         C  0.82199029  0.94128315  0.06343550    -0.54300
C29         C  0.84400511  0.97253481  0.04858062     0.08800
C30         C  0.86560499  0.96133231  0.00822933     0.19800
C31         C  0.80548927  0.92607316  0.99414055    -0.55100
C32         C  0.83081209  0.95546411  0.98060992     0.08900
C33         C  0.85785166  0.89326071  0.03119661    -0.54600
C34         C  0.88363614  0.91829011  0.01123525     0.09500
H35         H  0.80400522  0.94345509  0.09028740     0.14000
H36         H  0.88783831  0.98398370  0.99871892    -0.00300
H37         H  0.77861650  0.91715179  0.97882910     0.14300
H38         H  0.86504486  0.86288733  0.03469894     0.14100
O39         O  0.60631714  0.58085492  0.02700049    -0.73500
O40         O  0.68974604  0.49844854  0.02987995    -0.74500
O41         O  0.69153144  0.58289879  0.02356918    -0.63100
O42         O  0.60500309  0.49675065  0.02969066    -0.71600
O43         O  0.60382722  0.49345071  0.96409894    -0.71100
O44         O  0.69022217  0.57668093  0.95829884    -0.62400
O45         O  0.68845277  0.49198231  0.96454734    -0.74900
O46         O  0.60469323  0.57822290  0.96142946    -0.73600
Cu47       Cu  0.64822594  0.53994137  0.02976145     1.04600
Cu48       Cu  0.64687150  0.53501754  0.95978289     1.04300
C49         C  0.59193889  0.59248864  0.99448993     0.92700
C50         C  0.70169030  0.48135816  0.99821565     0.91800
C51         C  0.70441064  0.59338169  0.98932488     0.83900
C52         C  0.59091757  0.48166208  0.99759325     0.90200
C53         C  0.79562455  0.16002573  0.98971415     0.85900
C54         C  0.78962760  0.12275339  0.96615073    -0.54300
C55         C  0.81826445  0.09489460  0.97001142     0.08800
C56         C  0.85258558  0.10918299  0.99947491     0.19800
C57         C  0.80225425  0.14625292  0.03286039    -0.55100
C58         C  0.82929884  0.11670825  0.03763133     0.08900
C59         C  0.83647250  0.17391296  0.97431637    -0.54600
C60         C  0.86807982  0.15256665  0.98814519     0.09500
H61         H  0.76402580  0.11978526  0.94723175     0.14000
H62         H  0.87677505  0.08761762  0.00282385    -0.00300
H63         H  0.78385292  0.15688637  0.05717967     0.14300
H64         H  0.84126342  0.20399628  0.96547189     0.14100
C65         C  0.89208326  0.25173075  0.01702097     0.85900
C66         C  0.92885666  0.25523785  0.04137463    -0.54300
C67         C  0.95478969  0.22480106  0.03682553     0.08800
C68         C  0.94035052  0.19299553  0.00411429     0.19800
C69         C  0.90668991  0.24633619  0.97375601    -0.55100
C70         C  0.93520767  0.21823625  0.96722380     0.08900
C71         C  0.87620363  0.21116972  0.03069754    -0.54600
C72         C  0.89602888  0.17916466  0.01479732     0.09500
H73         H  0.93244593  0.28016987  0.06137616     0.14000
H74         H  0.96078976  0.16799056  0.99921415    -0.00300
H75         H  0.89716628  0.26622561  0.95085845     0.14300
H76         H  0.84679990  0.20739891  0.04293096     0.14100
O77         O  0.46189457  0.43449063  0.96548287    -0.73500
O78         O  0.54270818  0.35093293  0.97203466    -0.74500
O79         O  0.45787984  0.34984786  0.97381801    -0.63100
O80         O  0.54590843  0.43485913  0.96702248    -0.71600
O81         O  0.54597865  0.43949499  0.03256385    -0.71100
O82         O  0.45918966  0.35688598  0.03898066    -0.62400
O83         O  0.54378573  0.35506735  0.03727888    -0.74900
O84         O  0.46166363  0.44128353  0.03092253    -0.73600
Cu85       Cu  0.50205258  0.39227658  0.96733203     1.04600
Cu86       Cu  0.50255460  0.39836349  0.03720933     1.04300
C87         C  0.44959036  0.45178670  0.99681217     0.92700
C88         C  0.55625479  0.33932293  0.00484929     0.91800
C89         C  0.44487337  0.33984906  0.00819222     0.83900
C90         C  0.55952266  0.45053581  0.99904877     0.90200
C91         C  0.14153141  0.22456698  0.96282438     0.85900
C92         C  0.11118457  0.21433973  0.93171800    -0.54300
C93         C  0.07800253  0.19441175  0.94524271     0.08800
C94         C  0.08533873  0.17549807  0.98706841     0.19800
C95         C  0.11809391  0.23713884  0.00103955    -0.55100
C96         C  0.08865538  0.21137582  0.01366641     0.08900
C97         C  0.15618801  0.18365268  0.97159128    -0.54600
C98         C  0.12864552  0.15849049  0.98951704     0.09500
H99         H  0.11216163  0.22925665  0.90362099     0.14000
H100        H  0.06211201  0.15344116  0.99548668    -0.00300
H101        H  0.12505402  0.26472903  0.01629316     0.14300
H102        H  0.18741585  0.17848802  0.97326339     0.14100
C103        C  0.21630502  0.14057966  0.04283042     0.85900
C104        C  0.21078970  0.10825562  0.07245156    -0.54300
C105        C  0.18016223  0.08238888  0.06394480     0.08800
C106        C  0.15654477  0.09298324  0.02470428     0.19800
C107        C  0.21958281  0.11814528  0.00254599    -0.55100
C108        C  0.18806999  0.09317707  0.99247330     0.08900
C109        C  0.17466588  0.15959462  0.04423171    -0.54600
C110        C  0.14509637  0.13759002  0.02615910     0.09500
H111        H  0.23025958  0.10614182  0.09763582     0.14000
H112        H  0.13089324  0.07327305  0.01754804    -0.00300
H113        H  0.24526848  0.12358402  0.98382563     0.14300
H114        H  0.17019463  0.19086995  0.04850131     0.14100
C115        C  0.11294654  0.81122015  0.99218486     0.85900
C116        C  0.08505585  0.81821933  0.02605027    -0.54300
C117        C  0.07279233  0.85658720  0.03216823     0.08800
C118        C  0.08927626  0.88520832  0.99881668     0.19800
C119        C  0.08835856  0.82504750  0.95777735    -0.55100
C120        C  0.07740066  0.86445015  0.95927364     0.08900
C121        C  0.14606087  0.84183359  0.99561504    -0.54600
C122        C  0.13537873  0.88065691  0.99826052     0.09500
H123        H  0.07369012  0.79253022  0.04172122     0.14000
H124        H  0.07925883  0.91624376  0.00152624    -0.00300
H125        H  0.08073706  0.80572195  0.93351175     0.14300
H126        H  0.17616327  0.83161812  0.99243310     0.14100
C127        C  0.23643438  0.93752343  0.99427739     0.85900
C128        C  0.22647526  0.96041563  0.95787912    -0.54300
C129        C  0.18783030  0.97278942  0.95545771     0.08800
C130        C  0.16116808  0.95803530  0.99128444     0.19800
C131        C  0.22309718  0.96600167  0.02724646    -0.55100
C132        C  0.18270252  0.97374268  0.02853697     0.08900
C133        C  0.20662547  0.90346193  0.99595139    -0.54600
C134        C  0.16711964  0.91271364  0.99427632     0.09500
H135        H  0.25048648  0.97016288  0.93864457     0.14000
H136        H  0.12966662  0.96707361  0.98987021    -0.00300
H137        H  0.24281666  0.97627142  0.05029184     0.14300
H138        H  0.21796962  0.87422693  0.00076249     0.14100
O139        O  0.31520584  0.57316009  0.01270786    -0.73500
O140        O  0.40353912  0.49693311  0.02405484    -0.74500
O141        O  0.39979071  0.58150531  0.02313362    -0.63100
O142        O  0.32115089  0.48842639  0.01097640    -0.71600
O143        O  0.32999067  0.49160471  0.94621929    -0.71100
O144        O  0.40905520  0.58159962  0.95808239    -0.62400
O145        O  0.41236512  0.49664992  0.95884433    -0.74900
O146        O  0.32500792  0.57614070  0.94777535    -0.73600
Cu147      Cu  0.35949910  0.53527509  0.02000376     1.04600
Cu148      Cu  0.36941260  0.53669580  0.95051688     1.04300
C149        C  0.30583579  0.58654219  0.97897568     0.92700
C150        C  0.42075360  0.48349983  0.99311856     0.91800
C151        C  0.41732468  0.59564058  0.99231589     0.83900
C152        C  0.31465162  0.47425955  0.97616833     0.90200
O153        O  0.53879637  0.05816378  0.60220842    -0.73500
O154        O  0.45779830  0.05881762  0.68614259    -0.74500
O155        O  0.54223818  0.05318819  0.68575816    -0.63100
O156        O  0.45581637  0.05913012  0.60245735    -0.71600
O157        O  0.45198922  0.99347010  0.59998540    -0.71100
O158        O  0.53577701  0.98776440  0.68336459    -0.62400
O159        O  0.45073406  0.99360101  0.68504351    -0.74900
O160        O  0.53659770  0.99246932  0.59831455    -0.73600
Cu161      Cu  0.49876396  0.05945542  0.64439371     1.04600
Cu162      Cu  0.49366681  0.98937559  0.64169856     1.04300
C163        C  0.55019037  0.02607754  0.58627129     0.92700
C164        C  0.44061648  0.02757101  0.69889106     0.91800
C165        C  0.55275257  0.01891161  0.69739465     0.83900
C166        C  0.44110233  0.02699742  0.58755375     0.90200
C167        C  0.86626499  0.08060328  0.80098422     0.85900
C168        C  0.89915322  0.11008819  0.80898279    -0.54300
C169        C  0.92795460  0.09757742  0.83441367     0.08800
C170        C  0.91430408  0.05892525  0.85733795     0.19800
C171        C  0.88661237  0.03941024  0.79534145    -0.55100
C172        C  0.91248171  0.02843262  0.82463651     0.08900
C173        C  0.84696167  0.07906318  0.84143224    -0.54600
C174        C  0.86902744  0.06154111  0.87028260     0.09500
H175        H  0.90279279  0.13590363  0.79027356     0.14000
H176        H  0.93416359  0.05155886  0.88208493    -0.00300
H177        H  0.88095678  0.02139816  0.76927358     0.14300
H178        H  0.81539933  0.08220053  0.84466217     0.14100
C179        C  0.77456538  0.01160950  0.90153422     0.85900
C180        C  0.78614962  0.97707126  0.92656200    -0.54300
C181        C  0.82115342  0.98287943  0.94714360     0.08800
C182        C  0.84262321  0.02466042  0.93807444     0.19800
C183        C  0.77539175  0.04587240  0.93208591    -0.55100
C184        C  0.81141468  0.05531067  0.94907840     0.08900
C185        C  0.81082378  0.01606202  0.87469127    -0.54600
C186        C  0.84567225  0.02875675  0.89229010     0.09500
H187        H  0.76666598  0.95136255  0.92887738     0.14000
H188        H  0.87145928  0.02996011  0.95301690    -0.00300
H189        H  0.74810221  0.05841167  0.94319561     0.14300
H190        H  0.80699774  0.01561727  0.84274653     0.14100
O191        O  0.68564587  0.01526993  0.46279052    -0.73500
O192        O  0.59747477  0.99907427  0.54122521    -0.74500
O193        O  0.60125214  0.00048526  0.45611812    -0.63100
O194        O  0.68047829  0.01679245  0.54721017    -0.71600
O195        O  0.67001142  0.08123481  0.54475230    -0.71100
O196        O  0.59208259  0.06529511  0.45568325    -0.62400
O197        O  0.58770233  0.06392842  0.54046734    -0.74900
O198        O  0.67581863  0.08001117  0.46082112    -0.73600
Cu199      Cu  0.64156345  0.00558579  0.50163066     1.04600
Cu200      Cu  0.63086999  0.07475509  0.50031931     1.04300
C201        C  0.69554234  0.04959161  0.45026617     0.92700
C202        C  0.57955600  0.02949916  0.55422818     0.91800
C203        C  0.58411295  0.03076541  0.44174218     0.83900
C204        C  0.68766544  0.05211954  0.56016073     0.90200
C205        C  0.11457795  0.02489449  0.79482952     0.85900
C206        C  0.07697723  0.00124761  0.79092893    -0.54300
C207        C  0.04917964  0.00743637  0.81971580     0.08800
C208        C  0.06408880  0.03957984  0.85206095     0.19800
C209        C  0.10228771  0.06853785  0.79962345    -0.55100
C210        C  0.07270520  0.07632449  0.82684893     0.08900
C211        C  0.12845973  0.01165765  0.83558720    -0.54600
C212        C  0.10746065  0.02753648  0.86710706     0.09500
H213        H  0.07414355  0.98063824  0.76648252     0.14000
H214        H  0.04247204  0.04511654  0.87639728    -0.00300
H215        H  0.11531458  0.09088181  0.78047407     0.14300
H216        H  0.15784408  0.00030469  0.83976687     0.14100
C217        C  0.20842566  0.05971043  0.88644725     0.85900
C218        C  0.21074808  0.08353184  0.92376689    -0.54300
C219        C  0.18306913  0.07427707  0.95184428     0.08800
C220        C  0.15198117  0.04100643  0.93678427     0.19800
C221        C  0.20602200  0.01571773  0.89829402    -0.55100
C222        C  0.17907855  0.00602700  0.92737884     0.08900
C223        C  0.16682103  0.07038588  0.87266795    -0.54600
C224        C  0.13574342  0.05333785  0.89421300     0.09500
H225        H  0.23338969  0.10649484  0.92645679     0.14000
H226        H  0.12808674  0.03367565  0.95845979    -0.00300
H227        H  0.22699878  0.99465243  0.88614842     0.14300
H228        H  0.16241042  0.08183458  0.84348940     0.14100
O229        O  0.31849023  0.07289657  0.46141737    -0.73500
O230        O  0.40202845  0.06265272  0.54310405    -0.74500
O231        O  0.40232055  0.06273693  0.45867475    -0.63100
O232        O  0.31833000  0.06853540  0.54606930    -0.71600
O233        O  0.31198599  0.00345592  0.54121642    -0.71100
O234        O  0.39429620  0.99736026  0.45664034    -0.62400
O235        O  0.39542917  0.99715940  0.54111118    -0.74900
O236        O  0.30961743  0.00805937  0.45678192    -0.73600
Cu237      Cu  0.36052559  0.06895345  0.50224334     1.04600
Cu238      Cu  0.35252580  0.99923433  0.49870331     1.04300
C239        C  0.30024703  0.04311206  0.44626556     0.92700
C240        C  0.41150633  0.02881144  0.55575521     0.91800
C241        C  0.41168744  0.02873257  0.44440335     0.83900
C242        C  0.30272832  0.03590772  0.55823906     0.90200
C243        C  0.19205293  0.98976421  0.13273251     0.85900
C244        C  0.18449878  0.96207387  0.09842151    -0.54300
C245        C  0.16274512  0.97798672  0.06870678     0.08800
C246        C  0.14095913  0.01686333  0.08228962     0.19800
C247        C  0.20199697  0.03160805  0.11452550    -0.55100
C248        C  0.17528340  0.04529999  0.08743293     0.08900
C249        C  0.14995711  0.99274506  0.14932814    -0.54600
C250        C  0.12437444  0.01349351  0.12591466     0.09500
H251        H  0.20262381  0.93596252  0.09415816     0.14000
H252        H  0.11801948  0.02617321  0.06123123    -0.00300
H253        H  0.22888070  0.04788190  0.12236765     0.14300
H254        H  0.14387224  0.98985704  0.18053075     0.14100
C255        C  0.10708812  0.06663828  0.21872612     0.85900
C256        C  0.07892978  0.09944106  0.21187742    -0.54300
C257        C  0.05403301  0.09332291  0.18058711     0.08800
C258        C  0.06057719  0.05234726  0.15805009     0.19800
C259        C  0.08051313  0.02854163  0.22102934    -0.55100
C260        C  0.05451208  0.02149963  0.19018065     0.08900
C261        C  0.12882048  0.06302765  0.17911003    -0.54600
C262        C  0.10602817  0.04900706  0.14795771     0.09500
H263        H  0.07902780  0.12509533  0.23134699     0.14000
H264        H  0.04132837  0.04701324  0.13206925    -0.00300
H265        H  0.08501783  0.00770813  0.24437414     0.14300
H266        H  0.16095215  0.06093281  0.17859161     0.14100
C267        C  0.77387643  0.04152462  0.10052861     0.85900
C268        C  0.78353100  0.08070878  0.08200192    -0.54300
C269        C  0.82170756  0.08533046  0.06801496     0.08800
C270        C  0.84846164  0.04856149  0.07673115     0.19800
C271        C  0.78555714  0.01249390  0.06751426    -0.55100
C272        C  0.82576691  0.01252736  0.05766460     0.08900
C273        C  0.80454830  0.03561333  0.13222425    -0.54600
C274        C  0.84360966  0.04144855  0.12180339     0.09500
H275        H  0.75946733  0.10062981  0.07607279     0.14000
H276        H  0.87979685  0.05198198  0.06651850    -0.00300
H277        H  0.76517068  0.99025351  0.05600652     0.14300
H278        H  0.79469102  0.02586328  0.16120562     0.14100
C279        C  0.89021647  0.03474685  0.22415548     0.85900
C280        C  0.90614009  0.99482697  0.21289027    -0.54300
C281        C  0.92522285  0.99230652  0.17673469     0.08800
C282        C  0.91997235  0.03140343  0.15189807     0.19800
C283        C  0.92608888  0.06202756  0.21688140    -0.55100
C284        C  0.93886367  0.06505825  0.17814114     0.08900
C285        C  0.86155790  0.04529772  0.19215374    -0.54600
C286        C  0.87448317  0.04041462  0.15399958     0.09500
H287        H  0.90638326  0.97259204  0.23552715     0.14000
H288        H  0.93243884  0.02955913  0.12142743    -0.00300
H289        H  0.93785583  0.08132028  0.23938938     0.14300
H290        H  0.83245660  0.05629025  0.20032219     0.14100
O291        O  0.53438499  0.04851027  0.30820855    -0.73500
O292        O  0.45552484  0.05667821  0.39676529    -0.74500
O293        O  0.54009333  0.05710572  0.39318448    -0.63100
O294        O  0.44958437  0.04521480  0.31358876    -0.71600
O295        O  0.45293069  0.98007542  0.31940042    -0.71100
O296        O  0.54108691  0.99189007  0.39952908    -0.62400
O297        O  0.45555472  0.99131497  0.40299063    -0.74900
O298        O  0.53763878  0.98337799  0.31427397    -0.73600
Cu299      Cu  0.49510447  0.05408998  0.35265702     1.04600
Cu300      Cu  0.49698001  0.98437598  0.35931524     1.04300
C301        C  0.54769831  0.01526441  0.29627848     0.92700
C302        C  0.44244538  0.02537772  0.41339311     0.91800
C303        C  0.55402281  0.02631354  0.40971903     0.83900
C304        C  0.43698119  0.01028994  0.30418688     0.90200
O305        O  0.97442152  0.58085495  0.60451569    -0.73500
O306        O  0.98741543  0.50271814  0.69139390    -0.74500
O307        O  0.99018914  0.58844856  0.68649334    -0.63100
O308        O  0.97483616  0.49632471  0.60740730    -0.71600
O309        O  0.04013864  0.49615885  0.59753492    -0.71100
O310        O  0.05491154  0.58531791  0.67540960    -0.62400
O311        O  0.05265805  0.50096199  0.68146253    -0.74900
O312        O  0.03963189  0.58103112  0.59361518    -0.73600
Cu313      Cu  0.97943454  0.54186343  0.64804750     1.04600
Cu314      Cu  0.04901939  0.54066124  0.63669574     1.04300
C315        C  0.00494739  0.59403123  0.58595792     0.92700
C316        C  0.02138721  0.48922833  0.70022664     0.91800
C317        C  0.02553337  0.60267514  0.69158558     0.83900
C318        C  0.00549875  0.48254321  0.58934072     0.90200
C319        C  0.96132106  0.93422066  0.78917498     0.85900
C320        C  0.92982007  0.96442346  0.79404917    -0.54300
C321        C  0.93715991  0.99176991  0.82335450     0.08800
C322        C  0.97732207  0.98389234  0.84721100     0.19800
C323        C  0.00062641  0.95907783  0.78513136    -0.55100
C324        C  0.00951568  0.98542413  0.81568629     0.08900
C325        C  0.96058360  0.91598773  0.83091249    -0.54600
C326        C  0.97878899  0.93904238  0.85928320     0.09500
H327        H  0.90427468  0.96408897  0.77480046     0.14000
H328        H  0.98315989  0.00456117  0.87228053    -0.00300
H329        H  0.01968978  0.95368138  0.75989200     0.14300
H330        H  0.95714020  0.88465927  0.83603925     0.14100
C331        C  0.04461615  0.85374184  0.85974782     0.85900
C332        C  0.07707649  0.86415513  0.88850807    -0.54300
C333        C  0.06456941  0.88422726  0.92168803     0.08800
C334        C  0.02203274  0.90228303  0.91653286     0.19800
C335        C  0.00731634  0.84048210  0.88478171    -0.55100
C336        C  0.99578874  0.86579304  0.91479442     0.08900
C337        C  0.03491061  0.89479282  0.84571875    -0.54600
C338        C  0.01730950  0.91946280  0.87377018     0.09500
H339        H  0.10533185  0.84896759  0.88683938     0.14000
H340        H  0.01443598  0.92402101  0.94005413    -0.00300
H341        H  0.99199302  0.81269189  0.87849318     0.14300
H342        H  0.03211447  0.90005546  0.81479494     0.14100
O343        O  0.03077775  0.64301804  0.54257765    -0.73500
O344        O  0.01888567  0.72765090  0.46240917    -0.74500
O345        O  0.01989068  0.72693618  0.54650890    -0.63100
O346        O  0.02756757  0.64424198  0.45871136    -0.71600
O347        O  0.96194796  0.63596504  0.46000139    -0.71100
O348        O  0.95443041  0.71853570  0.54705212    -0.62400
O349        O  0.95345649  0.71998962  0.46252015    -0.74900
O350        O  0.96518588  0.63438711  0.54477843    -0.73600
Cu351      Cu  0.02645810  0.68578679  0.50252256     1.04600
Cu352      Cu  0.95641948  0.67689903  0.50373381     1.04300
C353        C  0.00002331  0.62508237  0.55624396     0.92700
C354        C  0.98498015  0.73726132  0.44923732     0.91800
C355        C  0.98565808  0.73590192  0.56060558     0.83900
C356        C  0.99593057  0.62716537  0.44552265     0.90200
C357        C  0.00131632  0.82368752  0.11072004     0.85900
C358        C  0.97639390  0.81933188  0.07350757    -0.54300
C359        C  0.97534399  0.85261127  0.05041518     0.08800
C360        C  0.00508828  0.88658039  0.06630159     0.19800
C361        C  0.04282253  0.83531644  0.09480256    -0.55100
C362        C  0.04509168  0.86471816  0.06735361     0.08900
C363        C  0.98335717  0.85996383  0.12961169    -0.54600
C364        C  0.99377025  0.89532263  0.11194527     0.09500
H365        H  0.96143807  0.79164595  0.06619004     0.14000
H366        H  0.00631518  0.91362254  0.04802445    -0.00300
H367        H  0.06729290  0.81564646  0.09855823     0.14300
H368        H  0.97207206  0.85801550  0.15981599     0.14100
C369        C  0.00297038  0.92258533  0.21404312     0.85900
C370        C  0.02499155  0.96110569  0.22022546    -0.54300
C371        C  0.02656780  0.98558887  0.18829287     0.08800
C372        C  0.99928442  0.96903888  0.15284408     0.19800
C373        C  0.96076149  0.93328967  0.20121308    -0.55100
C374        C  0.95812363  0.96190887  0.17277788     0.08900
C375        C  0.02438691  0.90733273  0.17671342    -0.54600
C376        C  0.01375815  0.92541543  0.14198023     0.09500
H377        H  0.03954949  0.96667111  0.24813599     0.14000
H378        H  0.99832672  0.98868893  0.12683911    -0.00300
H379        H  0.93514441  0.92129888  0.21703383     0.14300
H380        H  0.03878680  0.87919939  0.17588199     0.14100
O381        O  0.97602209  0.58037535  0.31391302    -0.73500
O382        O  0.96939481  0.49769221  0.39696144    -0.74500
O383        O  0.96773797  0.58148073  0.39785284    -0.63100
O384        O  0.98114921  0.49565610  0.31228594    -0.71600
O385        O  0.04623793  0.50071038  0.31968900    -0.71100
O386        O  0.03346532  0.58572788  0.40264505    -0.62400
O387        O  0.03496059  0.50179577  0.40384451    -0.74900
O388        O  0.04178252  0.58495244  0.31857338    -0.73600
Cu389      Cu  0.97130366  0.53860023  0.35485857     1.04600
Cu390      Cu  0.04136901  0.54333537  0.36136751     1.04300
C391        C  0.00912908  0.59630354  0.30359092     0.92700
C392        C  0.00096754  0.48732563  0.41424932     0.91800
C393        C  0.99901195  0.59679915  0.41378819     0.83900
C394        C  0.01629250  0.48470043  0.30236199     0.90200
C395        C  0.00743789  0.14755410  0.77185700     0.85900
C396        C  0.04427305  0.12620626  0.78308606    -0.54300
C397        C  0.04438215  0.11026052  0.82024923     0.08800
C398        C  0.00589125  0.12196375  0.84515963     0.19800
C399        C  0.97485084  0.11662797  0.78037346    -0.55100
C400        C  0.97024439  0.10624902  0.81970210     0.08900
C401        C  0.00139752  0.17929469  0.80306218    -0.54600
C402        C  0.00267894  0.16804399  0.84181495     0.09500
H403        H  0.06589873  0.12042934  0.76001843     0.14000
H404        H  0.00554350  0.11091883  0.87594306    -0.00300
H405        H  0.95430964  0.10601896  0.75804790     0.14300
H406        H  0.99503334  0.20878597  0.79313557     0.14100
C407        C  0.00966248  0.26925490  0.89710199     0.85900
C408        C  0.97245493  0.26215518  0.92159592    -0.54300
C409        C  0.96648180  0.22429001  0.93509105     0.08800
C410        C  0.99999847  0.19508490  0.92013039     0.19800
C411        C  0.04187555  0.25464819  0.92409801    -0.55100
C412        C  0.03975703  0.21498805  0.93397963     0.08900
C413        C  0.00682261  0.23893610  0.86392814    -0.54600
C414        C  0.00179988  0.19987009  0.87417905     0.09500
H415        H  0.95507955  0.28648452  0.93200788     0.14000
H416        H  0.99607020  0.16403702  0.93002127    -0.00300
H417        H  0.06644604  0.27403429  0.93186691     0.14300
H418        H  0.01121220  0.24950523  0.83416752     0.14100
C419        C  0.96915996  0.17019135  0.19430076     0.85900
C420        C  0.93912995  0.13700258  0.18912783    -0.54300
C421        C  0.95099334  0.10640930  0.16448436     0.08800
C422        C  0.99086840  0.11689029  0.14163569     0.19800
C423        C  0.00969782  0.15008783  0.20146738    -0.55100
C424        C  0.02025235  0.12082307  0.17490447     0.08900
C425        C  0.97089273  0.18528950  0.15202060    -0.54600
C426        C  0.98961958  0.16050422  0.12536586     0.09500
H427        H  0.91291887  0.13539931  0.20817129     0.14000
H428        H  0.99846775  0.09483535  0.11838624    -0.00300
H429        H  0.02737415  0.15851962  0.22685379     0.14300
H430        H  0.96713931  0.21607921  0.14532941     0.14100
C431        C  0.04277054  0.25251977  0.10865099     0.85900
C432        C  0.07251376  0.24757442  0.07569290    -0.54300
C433        C  0.06353589  0.21742039  0.04973632     0.08800
C434        C  0.02364148  0.19398978  0.06025417     0.19800
C435        C  0.00221368  0.25579609  0.08762509    -0.55100
C436        C  0.99244871  0.22589733  0.06093946     0.08900
C437        C  0.04245849  0.21104116  0.12726500    -0.54600
C438        C  0.02508741  0.18130332  0.10449955     0.09500
H439        H  0.09858463  0.26677539  0.07376963     0.14000
H440        H  0.01616511  0.16897911  0.04009309    -0.00300
H441        H  0.98347948  0.28056952  0.09464236     0.14300
H442        H  0.04540303  0.20692122  0.15861905     0.14100
O443        O  0.96690740  0.44164965  0.54522642    -0.73500
O444        O  0.95575849  0.36327495  0.45485646    -0.74500
O445        O  0.96113389  0.35683933  0.53929517    -0.63100
O446        O  0.96455450  0.44646457  0.45993151    -0.71600
O447        O  0.03041475  0.44278447  0.45782663    -0.71100
O448        O  0.02655819  0.35239904  0.53221311    -0.62400
O449        O  0.02109842  0.36042462  0.44833675    -0.74900
O450        O  0.03254914  0.43678638  0.54179861    -0.73600
Cu451      Cu  0.95974160  0.40221158  0.50016936     1.04600
Cu452      Cu  0.02985397  0.39789390  0.49515079     1.04300
C453        C  0.00138906  0.45189531  0.55766838     0.92700
C454        C  0.98627288  0.35048763  0.43622314     0.91800
C455        C  0.99387443  0.33996181  0.54739459     0.83900
C456        C  0.99836955  0.45775416  0.44570077     0.90200
C457        C  0.00408161  0.28490818  0.34428507    -0.12000
C458        C  0.96577740  0.28207878  0.32828131     0.14600
C459        C  0.93419678  0.30089532  0.34830162     0.01500
C460        C  0.94193467  0.32282144  0.38306496    -0.16300
C461        C  0.98037977  0.32553504  0.39960862    -0.11100
C462        C  0.01168864  0.30571216  0.37960956     0.08200
C463        C  0.95976090  0.25507152  0.29369634     0.09200
S464        S  0.88331386  0.29770563  0.33168397    -0.25500
H465        H  0.91731256  0.33760992  0.39749058     0.19500
S466        S  0.06171867  0.30390541  0.39792290    -0.31200
H467        H  0.02819011  0.26936238  0.32975483     0.09800
C468        C  0.95627663  0.26837780  0.25465785     0.03000
C469        C  0.95610862  0.24077539  0.22292711    -0.13500
C470        C  0.96056283  0.19960751  0.22912046    -0.09100
C471        C  0.96229194  0.18700359  0.26936539     0.06400
C472        C  0.96122187  0.21461977  0.30049266    -0.14200
S473        S  0.95311133  0.32065312  0.24522547    -0.31200
H474        H  0.95360010  0.25231402  0.19363675     0.10700
S475        S  0.96967072  0.13631562  0.28321206    -0.28300
H476        H  0.96319984  0.20474071  0.33077586     0.07900
H477        H  0.04946841  0.29234406  0.43597615     0.26400
H478        H  0.95845259  0.31807802  0.20393522     0.21200
H479        H  0.98593812  0.14386994  0.32082622     0.26500
H480        H  0.88604527  0.26189761  0.31035682     0.15300
C481        C  0.03914562  0.21830723  0.68781911    -0.12000
C482        C  0.00621484  0.21597446  0.66296968     0.14600
C483        C  0.97596861  0.18755889  0.67049738     0.01500
C484        C  0.97820680  0.16348635  0.70383873    -0.16300
C485        C  0.00993983  0.16721209  0.73083539    -0.11100
C486        C  0.04116113  0.19516039  0.72192099     0.08200
C487        C  0.00182969  0.24710347  0.63285833     0.09200
S488        S  0.93199320  0.18273756  0.64043806    -0.25500
H489        H  0.95325918  0.14381457  0.70927529     0.19500
S490        S  0.08200748  0.20513637  0.75555180    -0.31200
H491        H  0.06206186  0.24042887  0.68178294     0.09800
C492        C  0.97785601  0.28025322  0.64037605     0.03000
C493        C  0.97417447  0.30927504  0.61126990    -0.13500
C494        C  0.99473197  0.30627212  0.57506196    -0.09100
C495        C  0.01873945  0.27284819  0.56770363     0.06400
C496        C  0.02235452  0.24393735  0.59675416    -0.14200
S497        S  0.95353096  0.28646254  0.68789090    -0.31200
H498        H  0.95649723  0.33517544  0.61730043     0.10700
S499        S  0.04437615  0.26469713  0.52133789    -0.28300
H500        H  0.04081804  0.21849420  0.59098719     0.07900
H501        H  0.10105210  0.23552390  0.73402297     0.26400
H502        H  0.93461284  0.32210696  0.67936382     0.21200
H503        H  0.01387427  0.28017834  0.49822889     0.26500
H504        H  0.94925067  0.19714671  0.60530374     0.15300
C505        C  0.00317856  0.40686204  0.21847943    -0.12000
C506        C  0.04150680  0.39106150  0.21586200     0.14600
C507        C  0.07184921  0.40841803  0.23930471     0.01500
C508        C  0.06248279  0.43830514  0.26695967    -0.16300
C509        C  0.02358481  0.45310307  0.27125148    -0.11100
C510        C  0.99385975  0.43768907  0.24541169     0.08200
C511        C  0.04821627  0.35622526  0.18883576     0.09200
S512        S  0.12333398  0.39453087  0.23488723    -0.25500
H513        H  0.08625973  0.45024703  0.28522109     0.19500
S514        S  0.94424508  0.45738436  0.24512467    -0.31200
H515        H  0.98028048  0.39454300  0.19940721     0.09800
C516        C  0.05589656  0.31817655  0.20333944     0.03000
C517        C  0.05717828  0.28548581  0.17708212    -0.13500
C518        C  0.05040156  0.28930786  0.13601983    -0.09100
C519        C  0.04679125  0.32853309  0.12137872     0.06400
C520        C  0.04486138  0.36100271  0.14789442    -0.14200
S521        S  0.06212964  0.31060937  0.25576677    -0.31200
H522        H  0.06299237  0.25721137  0.18958984     0.10700
S523        S  0.04360574  0.33806078  0.06886112    -0.28300
H524        H  0.04027988  0.39047343  0.13678178     0.07900
H525        H  0.92906597  0.43336637  0.21427400     0.26400
H526        H  0.06696763  0.26933497  0.25413077     0.21200
H527        H  0.03472583  0.37852583  0.07187459     0.26500
H528        H  0.12144676  0.38001753  0.19578666     0.15300
C529        C  0.03460440  0.74355543  0.18505231    -0.12000
C530        C  0.00112948  0.71874111  0.18651601     0.14600
C531        C  0.96697647  0.72903586  0.16532515     0.01500
C532        C  0.96768894  0.76331024  0.14220388    -0.16300
C533        C  0.00204715  0.78784164  0.13891223    -0.11100
C534        C  0.03546175  0.77830883  0.16308422     0.08200
C535        C  0.00196398  0.68554873  0.21478948     0.09200
S536        S  0.92160078  0.69971187  0.16649136    -0.25500
H537        H  0.94086076  0.77076546  0.12673901     0.19500
S538        S  0.07854683  0.81030804  0.17182206    -0.31200
H539        H  0.05976930  0.73660034  0.20336384     0.09800
C540        C  0.02891987  0.65417293  0.21010906     0.03000
C541        C  0.03200791  0.62594747  0.24012215    -0.13500
C542        C  0.00866384  0.62861271  0.27464357    -0.09100
C543        C  0.98246794  0.66062187  0.27953863     0.06400
C544        C  0.97908932  0.68836081  0.24951003    -0.14200
S545        S  0.05871452  0.64969545  0.16555209    -0.31200
H546        H  0.05189526  0.60129719  0.23637950     0.10700
S547        S  0.95398308  0.66879104  0.32430696    -0.28300
H548        H  0.95951663  0.71322406  0.25384680     0.07900
H549        H  0.10552326  0.77988919  0.17902883     0.26400
H550        H  0.07671847  0.61382833  0.17511866     0.21200
H551        H  0.98333354  0.65498101  0.34983337     0.26500
H552        H  0.93946566  0.66346387  0.17475739     0.15300
C553        C  0.95300071  0.80282425  0.36351005    -0.12000
C554        C  0.98880596  0.82334347  0.35550026     0.14600
C555        C  0.02166894  0.81790269  0.38024752     0.01500
C556        C  0.01883655  0.79060214  0.41088577    -0.16300
C557        C  0.98369050  0.76833725  0.41817699    -0.11100
C558        C  0.94993526  0.77558250  0.39463114     0.08200
C559        C  0.99221288  0.84785103  0.31947801     0.09200
S560        S  0.06880043  0.84345324  0.37316685    -0.25500
H561        H  0.04487616  0.78646108  0.42890666     0.19500
S562        S  0.90322191  0.74939808  0.40162237    -0.31200
H563        H  0.92776041  0.80702113  0.34440512     0.09800
C564        C  0.00993933  0.83308777  0.28469363     0.03000
C565        C  0.01341455  0.85715652  0.25123634    -0.18300
C566        C  0.00097592  0.89688188  0.25176278    -0.09100
C567        C  0.98376201  0.91168639  0.28780471     0.06400
C568        C  0.97918610  0.88684073  0.32066989    -0.14200
S569        S  0.02750179  0.78297355  0.28250515    -0.31200
H570        H  0.02476026  0.84368785  0.22470138     0.10700
S571        S  0.96687427  0.96214596  0.29300035    -0.28300
H572        H  0.96590121  0.89789984  0.34784635     0.07900
H573        H  0.87976411  0.78142379  0.39041656     0.26400
H574        H  0.05808961  0.79125105  0.25506128     0.21200
H575        H  0.95708093  0.96121839  0.33353098     0.26500
H576        H  0.05350954  0.87786165  0.35658240     0.15300
C577        C  0.96186718  0.89391126  0.68107042    -0.12000
C578        C  0.96282862  0.85287117  0.68647558     0.14600
C579        C  0.95846190  0.83804439  0.72502258     0.01500
C580        C  0.95605735  0.86413583  0.75740424    -0.16300
C581        C  0.95684387  0.90577416  0.75292017    -0.11100
C582        C  0.95824269  0.92040856  0.71343930     0.08200
C583        C  0.96974066  0.82586356  0.65193469     0.09200
S584        S  0.95627956  0.78570314  0.73505875    -0.25500
H585        H  0.95420224  0.85050191  0.78587020     0.19500
S586        S  0.95746767  0.97298445  0.70344004    -0.31200
H587        H  0.96485264  0.90518560  0.65132531     0.09800
C588        C  0.93998774  0.81795153  0.62368542     0.03000
C589        C  0.94621550  0.78890983  0.59413029    -0.13500
C590        C  0.98146971  0.76691881  0.59231842    -0.09100
C591        C  0.01119559  0.77509860  0.62092022     0.06400
C592        C  0.00534529  0.80484460  0.64964942    -0.14200
S593        S  0.89333871  0.84359945  0.62633636    -0.31200
H594        H  0.92330630  0.78316228  0.57240376     0.10700
S595        S  0.05578241  0.74666448  0.62466017    -0.28300
H596        H  0.02804040  0.81043334  0.67166629     0.07900
H597        H  0.95413514  0.96985898  0.66206725     0.26400
H598        H  0.87354457  0.82058061  0.59739005     0.21200
H599        H  0.03606839  0.70987820  0.61921241     0.26500
H600        H  0.93826049  0.77388886  0.69935453     0.15300
C601        C  0.05636876  0.78527875  0.76607398    -0.12000
C602        C  0.05189398  0.74812847  0.78411895     0.14600
C603        C  0.05573460  0.74628495  0.82544318     0.01500
C604        C  0.05720065  0.78127203  0.84784704    -0.16300
C605        C  0.05538384  0.81923450  0.83069077    -0.11100
C606        C  0.05954737  0.82078104  0.78867490     0.08200
C607        C  0.04386311  0.71174932  0.75954090     0.09200
S608        S  0.05752344  0.70015491  0.85177927    -0.25500
H609        H  0.05677696  0.77843970  0.87955835     0.19500
S610        S  0.07400437  0.86548785  0.76305349    -0.31200
H611        H  0.05693289  0.78638795  0.73409700     0.09800
C612        C  0.00877399  0.68843575  0.76428419     0.03000
C613        C  0.00361275  0.65318867  0.74203950    -0.13500
C614        C  0.03282650  0.64015110  0.71505722    -0.09100
C615        C  0.06781940  0.66418548  0.70993442     0.06400
C616        C  0.07262584  0.69947983  0.73207219    -0.14200
S617        S  0.96982532  0.70389612  0.79797310    -0.31200
H618        H  0.97655065  0.63569579  0.74574507     0.10700
S619        S  0.10640272  0.65177572  0.67436414    -0.28300
H620        H  0.09927504  0.71761332  0.72838658     0.07900
H621        H  0.08100606  0.84812707  0.72564278     0.26400
H622        H  0.94891854  0.66743808  0.79860183     0.21200
H623        H  0.13339446  0.68266809  0.68391310     0.26500
H624        H  0.07524374  0.67823904  0.82090527     0.15300
C625        C  0.05476826  0.35385158  0.83322197    -0.12000
C626        C  0.02354744  0.38048830  0.83193972     0.14600
C627        C  0.99038506  0.37437830  0.85709011     0.01500
C628        C  0.98760455  0.34023475  0.88031330    -0.16300
C629        C  0.01745219  0.31113268  0.87949816    -0.11100
C630        C  0.05230957  0.31955446  0.85627102     0.08200
C631        C  0.02343334  0.40963100  0.79915652     0.09200
S632        S  0.94941078  0.40812113  0.85921259    -0.25500
H633        H  0.96042647  0.33625844  0.89688886     0.19500
S634        S  0.09243221  0.28503013  0.85092932    -0.31200
H635        H  0.07996249  0.35840171  0.81348842     0.09800
C636        C  0.05148391  0.44115583  0.79639220     0.03000
C637        C  0.05138460  0.46600391  0.76312801    -0.13500
C638        C  0.02378194  0.45990081  0.73251958    -0.09100
C639        C  0.99657157  0.42752512  0.73502121     0.06400
C640        C  0.99642997  0.40321378  0.76825769    -0.14200
S641        S  0.08623062  0.45066979  0.83595476    -0.31200
H642        H  0.07201092  0.49094571  0.76148884     0.10700
S643        S  0.96233307  0.41452997  0.69597709    -0.28300
H644        H  0.97567272  0.37830235  0.76959524     0.07900
H645        H  0.12073142  0.31152008  0.83461314     0.26400
H646        H  0.10745415  0.48169759  0.81742380     0.21200
H647        H  0.98788774  0.42626186  0.66488509     0.26500
H648        H  0.97159656  0.44184188  0.84771401     0.15300
C649        C  0.59934505  0.04198324  0.19920943    -0.12000
C650        C  0.63355736  0.01906409  0.20079402     0.14600
C651        C  0.63826554  0.99302745  0.23280287     0.01500
C652        C  0.60855607  0.99024502  0.26217598    -0.16300
C653        C  0.57499711  0.01438807  0.26145819    -0.11100
C654        C  0.57005616  0.03984021  0.22885054     0.08200
C655        C  0.66542158  0.02598530  0.17084578     0.09200
S656        S  0.68258368  0.96455223  0.23914492    -0.25500
H657        H  0.61290997  0.97090378  0.28704953     0.19500
S658        S  0.52702508  0.07028460  0.22293900    -0.31200
H659        H  0.59570215  0.06215369  0.17485427     0.09800
C660        C  0.67477102  0.99815236  0.14103726     0.03000
C661        C  0.70761099  0.00513387  0.11573523    -0.13500
C662        C  0.73242996  0.03909481  0.12036588    -0.09100
C663        C  0.72185521  0.06732983  0.15036460     0.06400
C664        C  0.68820241  0.06077207  0.17418862    -0.14200
S665        S  0.64543769  0.95318475  0.13574370    -0.31200
H666        H  0.71460221  0.98265644  0.09406820     0.10700
S667        S  0.75235888  0.11071224  0.16180817    -0.28300
H668        H  0.68063149  0.08211697  0.19711138     0.07900
H669        H  0.49983525  0.04278770  0.23935241     0.26400
H670        H  0.67517807  0.93153211  0.11609725     0.21200
H671        H  0.74008868  0.11478762  0.20156513     0.26500
H672        H  0.70934003  0.99353586  0.22464399     0.15300
C673        C  0.36642629  0.96516995  0.22709227    -0.12000
C674        C  0.33345758  0.98995621  0.23055938     0.14600
C675        C  0.33568692  0.02271983  0.25704233     0.01500
C676        C  0.36991131  0.02917259  0.28003718    -0.16300
C677        C  0.40291151  0.00435194  0.27657546    -0.11100
C678        C  0.40124898  0.97260190  0.24878016     0.08200
C679        C  0.29799623  0.98206461  0.20503031     0.09200
S680        S  0.29611355  0.05770525  0.26254868    -0.25500
H681        H  0.37062790  0.05366074  0.30105600     0.19500
S682        S  0.44326734  0.94177206  0.23787776    -0.31200
H683        H  0.36542723  0.94040078  0.20640514     0.09800
C684        C  0.30057265  0.98515820  0.16358979     0.03000
C685        C  0.26584479  0.98217881  0.14109090    -0.13500
C686        C  0.22767132  0.97744677  0.15857619    -0.09100
C687        C  0.22640185  0.96724168  0.19928509     0.06400
C688        C  0.26114943  0.97128286  0.22215800    -0.14200
S689        S  0.34739599  0.99673827  0.13920588    -0.31200
H690        H  0.26822101  0.98767950  0.10980197     0.10700
S691        S  0.18452096  0.94283458  0.22266507    -0.28300
H692        H  0.25972456  0.96516323  0.25350131     0.07900
H693        H  0.47206171  0.97210827  0.24312828     0.26400
H694        H  0.33422015  0.99083881  0.10013611     0.21200
H695        H  0.17148394  0.92400376  0.18756937     0.26500
H696        H  0.28364146  0.05582797  0.22295799     0.15300
C697        C  0.19630726  0.09015197  0.28830835    -0.12000
C698        C  0.18439919  0.06933974  0.32221954     0.14600
C699        C  0.14460161  0.05588949  0.32527544     0.01500
C700        C  0.11970786  0.05823484  0.29249513    -0.16300
C701        C  0.13341544  0.07310661  0.25577033    -0.11100
C702        C  0.17084360  0.09352944  0.25564957     0.08200
C703        C  0.21386080  0.06210325  0.35384744     0.09200
S704        S  0.12377622  0.03482325  0.36989805    -0.25500
H705        H  0.08927464  0.04776084  0.29593789     0.19500
S706        S  0.18567809  0.12659159  0.21628518    -0.31200
H707        H  0.22576479  0.10359283  0.28736893     0.09800
C708        C  0.22983243  0.02429056  0.35967547     0.03000
C709        C  0.25725799  0.01859859  0.39030096    -0.13500
C710        C  0.26884356  0.04987464  0.41588789    -0.09100
C711        C  0.25136522  0.08755591  0.41044440     0.06400
C712        C  0.22516153  0.09331618  0.37910431    -0.14200
S713        S  0.21559042  0.98336133  0.32765810    -0.31200
H714        H  0.27001881  0.98971531  0.39401206     0.10700
S715        S  0.25914469  0.12939698  0.44330092    -0.28300
H716        H  0.21229906  0.12218621  0.37517879     0.07900
H717        H  0.21612698  0.14665859  0.23715451     0.26400
H718        H  0.24248451  0.95598009  0.34256734     0.21200
H719        H  0.25384740  0.10697145  0.47786101     0.26500
H720        H  0.14981021  0.05402002  0.39649878     0.15300
C721        C  0.23627266  0.06168654  0.64762266    -0.12000
C722        C  0.21995116  0.02426469  0.65648793     0.14600
C723        C  0.23015821  0.99140919  0.63275521     0.01500
C724        C  0.25689276  0.99656003  0.60128492    -0.16300
C725        C  0.27414264  0.03391132  0.59235777    -0.11100
C726        C  0.26394130  0.06674814  0.61670523     0.08200
C727        C  0.19300640  0.02058162  0.69114461     0.09200
S728        S  0.21052618  0.94200186  0.64103432    -0.25500
H729        H  0.26414329  0.97068440  0.58358716     0.19500
S730        S  0.28621809  0.11529428  0.61159485    -0.31200
H731        H  0.22828370  0.08702064  0.66579921     0.09800
C732        C  0.20578857  0.00510905  0.72719675     0.03000
C733        C  0.18035453  0.00577502  0.76035798    -0.13500
C734        C  0.14139258  0.02027928  0.75795326    -0.09100
C735        C  0.12774516  0.03244757  0.72009081     0.06400
C736        C  0.15406187  0.03346111  0.68778792    -0.14200
S737        S  0.25471593  0.98460330  0.73094223    -0.31200
H738        H  0.19161885  0.99500502  0.78775396     0.10700
S739        S  0.07702538  0.04768271  0.71185119    -0.28300
H740        H  0.14436953  0.04442722  0.65955698     0.07900
H741        H  0.32528884  0.10120066  0.61378933     0.26400
H742        H  0.25312024  0.97691667  0.77174422     0.21200
H743        H  0.07875353  0.04825011  0.67026567     0.26500
H744        H  0.17498529  0.95293320  0.66003955     0.15300
C745        C  0.81063104  0.01683805  0.30518789    -0.12000
C746        C  0.81951213  0.04681277  0.33268410     0.14600
C747        C  0.85401673  0.07047958  0.32745429     0.01500
C748        C  0.87794109  0.06467555  0.29381033    -0.16300
C749        C  0.86837268  0.03588039  0.26454106    -0.11100
C750        C  0.83420796  0.01103228  0.27132797     0.08200
C751        C  0.79072416  0.05305485  0.36530429     0.09200
S752        S  0.86808904  0.11020051  0.36110464    -0.25500
H753        H  0.90316269  0.08438296  0.29057108     0.19500
S754        S  0.81821358  0.97322844  0.23603895    -0.31200
H755        H  0.78408589  0.99874027  0.30981043     0.09800
C756        C  0.75725108  0.07700128  0.36047791     0.03000
C757        C  0.72731470  0.07722571  0.38973687    -0.13500
C758        C  0.73017558  0.05353556  0.42338812    -0.09100
C759        C  0.76498764  0.03144465  0.42909176     0.06400
C760        C  0.79449651  0.03093614  0.39973822    -0.14200
S761        S  0.75193239  0.10579014  0.31622233    -0.31200
H762        H  0.70086481  0.09445786  0.38558351     0.10700
S763        S  0.77371875  0.00355499  0.47326499    -0.28300
H764        H  0.82038474  0.01273413  0.40346163     0.07900
H765        H  0.78388200  0.96000668  0.25640337     0.26400
H766        H  0.71217153  0.11643691  0.32308597     0.21200
H767        H  0.75445321  0.03020493  0.49903379     0.26500
H768        H  0.84617797  0.09737732  0.39423993     0.15300
C769        C  0.77634109  0.09772120  0.73117525    -0.12000
C770        C  0.79162925  0.08229852  0.69549733     0.14600
C771        C  0.83284021  0.07536973  0.69286532     0.01500
C772        C  0.85671181  0.08035846  0.72649804    -0.16300
C773        C  0.84054854  0.09005429  0.76412303    -0.11100
C774        C  0.80053100  0.10338223  0.76474453     0.08200
C775        C  0.76440925  0.07472973  0.66127714     0.09200
S776        S  0.85674713  0.05866973  0.64782152    -0.25500
H777        H  0.88800378  0.07357940  0.72378020     0.19500
S778        S  0.78046479  0.13473027  0.80320781    -0.31200
H779        H  0.74550556  0.10650648  0.73251361     0.09800
C780        C  0.74122345  0.03954216  0.65830035     0.03000
C781        C  0.71748056  0.03229480  0.62464838    -0.13500
C782        C  0.71584998  0.05972897  0.59370834    -0.09100
C783        C  0.73955547  0.09492615  0.59680215     0.06400
C784        C  0.76310689  0.10207257  0.63043279    -0.14200
S785        S  0.74228081  0.00360048  0.69737084    -0.31200
H786        H  0.69946612  0.00543967  0.62281075     0.10700
S787        S  0.74268807  0.13121737  0.55814512    -0.28300
H788        H  0.78126643  0.12888513  0.63221910     0.07900
H789        H  0.81770642  0.14995174  0.81533694     0.26400
H790        H  0.71181650  0.97863978  0.68252135     0.21200
H791        H  0.74192806  0.10326530  0.52691760     0.26500
H792        H  0.82452000  0.03567238  0.63368720     0.15300
C793        C  0.65046856  0.02907076  0.75399260    -0.12000
C794        C  0.64382290  0.00287584  0.78560381     0.14600
C795        C  0.60695675  0.98212709  0.78778610     0.01500
C796        C  0.57832146  0.98740237  0.75834274    -0.16300
C797        C  0.58455142  0.01442641  0.72741083    -0.11100
C798        C  0.62139686  0.03507716  0.72502199     0.08200
C799        C  0.67414369  0.00202212  0.81779579     0.09200
S800        S  0.59383726  0.94990901  0.82819277    -0.25500
H801        H  0.55023138  0.97123295  0.76038489     0.19500
S802        S  0.63228553  0.06781835  0.68427284    -0.31200
H803        H  0.67850707  0.04532880  0.75245136     0.09800
C804        C  0.69852710  0.96945093  0.82533474     0.03000
C805        C  0.72865249  0.97280947  0.85435270    -0.13500
C806        C  0.73608557  0.00843603  0.87591360    -0.09100
C807        C  0.71136912  0.04140043  0.86647158     0.06400
C808        C  0.68042210  0.03687084  0.83937234    -0.14200
S809        S  0.69297434  0.92450940  0.79630518    -0.31200
H810        H  0.74790148  0.94798510  0.85887162     0.10700
S811        S  0.71762769  0.09214059  0.88285953    -0.28300
H812        H  0.66211625  0.06211551  0.83302131     0.07900
H813        H  0.67113852  0.07869883  0.69570738     0.26400
H814        H  0.72284443  0.90323493  0.81510418     0.21200
H815        H  0.75864946  0.09365576  0.87604635     0.26500
H816        H  0.61433697  0.97180841  0.85745589     0.15300
C817        C  0.31617218  0.05332021  0.84877662    -0.12000
C818        C  0.31210451  0.06079001  0.80862882     0.14600
C819        C  0.27560177  0.07471023  0.79447816     0.01500
C820        C  0.24262253  0.07654217  0.82011759    -0.16300
C821        C  0.24550327  0.06594366  0.86017646    -0.11100
C822        C  0.28389325  0.05632869  0.87488649     0.08200
C823        C  0.34614970  0.05161161  0.78240285     0.09200
S824        S  0.26850032  0.09002835  0.74408248    -0.25500
H825        H  0.21471548  0.08516183  0.80775052     0.19500
S826        S  0.29256406  0.04549215  0.92657234    -0.31200
H827        H  0.34476559  0.04397915  0.85937999     0.09800
C828        C  0.37656974  0.07964227  0.77533359     0.03000
C829        C  0.40765154  0.06999005  0.74935606    -0.13500
C830        C  0.40888859  0.03290279  0.72952120    -0.09100
C831        C  0.37889293  0.00426936  0.73826412     0.06400
C832        C  0.34863859  0.01365139  0.76541364    -0.14200
S833        S  0.37554399  0.12781430  0.79915652    -0.31200
H834        H  0.43086747  0.09196643  0.74408705     0.10700
S835        S  0.37609224  0.95621592  0.71477356    -0.28300
H836        H  0.32635898  0.99140204  0.77280336     0.07900
H837        H  0.33296630  0.03580103  0.92329675     0.26400
H838        H  0.40778868  0.14467565  0.77807850     0.21200
H839        H  0.37857143  0.97157093  0.67628561     0.26500
H840        H  0.30829378  0.09042644  0.73130410     0.15300
C841        C  0.20809160  0.63798917  0.99840741    -0.12000
C842        C  0.21485799  0.67416188  0.97939519     0.14600
C843        C  0.25105126  0.68054957  0.95846806     0.01500
C844        C  0.27928648  0.65052378  0.95677993    -0.16300
C845        C  0.27286701  0.61469979  0.97663793    -0.11100
C846        C  0.23641233  0.60815729  0.99697567     0.08200
C847        C  0.18417130  0.70500140  0.98321003     0.09200
S848        S  0.26375337  0.72667645  0.93459053    -0.25500
H849        H  0.30733055  0.65592982  0.94149291     0.19500
S850        S  0.22383176  0.56207104  0.02090643    -0.31200
H851        H  0.18036816  0.63291580  0.01436520     0.09800
C852        C  0.16022481  0.71559813  0.95130998     0.03000
C853        C  0.13427603  0.74761239  0.95549211    -0.13500
C854        C  0.13179785  0.76981154  0.99116222    -0.09100
C855        C  0.15443582  0.75681719  0.02404188     0.06400
C856        C  0.17990865  0.72465024  0.01953153    -0.14200
S857        S  0.16338489  0.68865357  0.90492138    -0.31200
H858        H  0.11790973  0.75606542  0.92987957     0.10700
S859        S  0.15401014  0.78251139  0.07150086    -0.28300
H860        H  0.19801362  0.71559589  0.04403258     0.07900
H861        H  0.24485478  0.53789802  0.99406698     0.26400
H862        H  0.13961718  0.71404421  0.88301480     0.21200
H863        H  0.18511621  0.76203674  0.08919463     0.26500
H864        H  0.24188095  0.75133710  0.96016475     0.15300
C865        C  0.23579564  0.29273512  0.95118870    -0.12000
C866        C  0.21816108  0.32991823  0.95606243     0.14600
C867        C  0.17656939  0.33210074  0.95280354     0.01500
C868        C  0.15362424  0.29726317  0.95082063    -0.16300
C869        C  0.17049364  0.25918875  0.95147719    -0.11100
C870        C  0.21267937  0.25765334  0.94722704     0.08200
C871        C  0.24363150  0.36608233  0.96251460     0.09200
S872        S  0.15065831  0.37841587  0.95192483    -0.25500
H873        H  0.12179222  0.30024709  0.95182397     0.19500
S874        S  0.23909591  0.21452166  0.93071789    -0.31200
H875        H  0.26793385  0.29113986  0.94977822     0.09800
C876        C  0.24142287  0.38922349  0.99757590     0.03000
C877        C  0.26449081  0.42433029  0.00107052    -0.13500
C878        C  0.29020584  0.43700487  0.97043316    -0.09100
C879        C  0.29325429  0.41273548  0.93578383     0.06400
C880        C  0.26980028  0.37798821  0.93233300    -0.14200
S881        S  0.20989116  0.37367724  0.03834761    -0.31200
H882        H  0.26242810  0.44204248  0.02789523     0.10700
S883        S  0.32771479  0.42417675  0.89588257    -0.28300
H884        H  0.27146506  0.35996337  0.90566973     0.07900
H885        H  0.20721659  0.19926572  0.90809927     0.26400
H886        H  0.21811814  0.40622215  0.06352808     0.21200
H887        H  0.32262355  0.38870153  0.87410665     0.26500
H888        H  0.18121520  0.39987715  0.93263036     0.15300
C889        C  0.32562476  0.18037020  0.04092463    -0.12000
C890        C  0.32047663  0.22149324  0.04046836     0.14600
C891        C  0.28210228  0.23621012  0.04726155     0.01500
C892        C  0.24946026  0.21010548  0.05089248    -0.16300
C893        C  0.25338382  0.16846456  0.04832388    -0.11100
C894        C  0.29291127  0.15379864  0.04519513     0.08200
C895        C  0.35471969  0.24871824  0.03075912     0.09200
S896        S  0.27258974  0.28853204  0.05078421    -0.25500
H897        H  0.22118728  0.22378809  0.05494575     0.19500
S898        S  0.30239159  0.10116702  0.04472243    -0.31200
H899        H  0.35533072  0.16910132  0.03681484     0.09800
C900        C  0.38564664  0.25660068  0.05774020     0.03000
C901        C  0.41476770  0.28576626  0.04896560    -0.13500
C902        C  0.41385465  0.30786318  0.01380592    -0.09100
C903        C  0.38300361  0.29930851  0.98653563     0.06400
C904        C  0.35436716  0.26964915  0.99505729    -0.14200
S905        S  0.38705063  0.23089035  0.10424848    -0.31200
H906        H  0.43829838  0.29169706  0.06998710     0.10700
S907        S  0.37663137  0.32673127  0.94175206    -0.28300
H908        H  0.33053253  0.26385744  0.97430589     0.07900
H909        H  0.34255247  0.10368142  0.03278385     0.26400
H910        H  0.42061548  0.25102820  0.11963418     0.21200
H911        H  0.38436613  0.36392669  0.95956382     0.26500
H912        H  0.30911836  0.29925883  0.06818961     0.15300
C913        C  0.63042915  0.26117708  0.97111109    -0.12000
C914        C  0.65266079  0.25641784  0.00545973     0.14600
C915        C  0.64047960  0.27587866  0.04080439     0.01500
C916        C  0.60858493  0.30201662  0.03979216    -0.16300
C917        C  0.58738380  0.30838767  0.00483909    -0.11100
C918        C  0.59756137  0.28601989  0.97039402     0.08200
C919        C  0.68900661  0.23227040  0.00175711     0.09200
S920        S  0.66355217  0.26967432  0.08834701    -0.25500
H921        H  0.60066014  0.31797721  0.06665200     0.19500
S922        S  0.56913300  0.28761142  0.92518004    -0.31200
H923        H  0.63926949  0.24532374  0.94448943     0.09800
C924        C  0.68996741  0.19316907  0.01519453     0.03000
C925        C  0.72398646  0.17073631  0.00815052    -0.13500
C926        C  0.75822038  0.18624336  0.98844636    -0.09100
C927        C  0.75485050  0.22427747  0.97108031     0.06400
C928        C  0.72102553  0.24693235  0.97902555    -0.14200
S929        S  0.64783852  0.17158098  0.04123337    -0.31200
H930        H  0.72426985  0.14071336  0.01898896     0.10700
S931        S  0.78760494  0.24392797  0.93350212    -0.28300
H932        H  0.71883432  0.27594958  0.96591665     0.07900
H933        H  0.58897882  0.25742726  0.90434907     0.26400
H934        H  0.66755162  0.13815822  0.05513994     0.21200
H935        H  0.79235635  0.20695708  0.91449839     0.26500
H936        H  0.69146977  0.24116569  0.07773421     0.15300
C937        C  0.75539110  0.38350073  0.98412024    -0.12000
C938        C  0.78552027  0.38724534  0.01250276     0.14600
C939        C  0.78828596  0.42229050  0.03561973     0.01500
C940        C  0.76108366  0.45263118  0.02976037    -0.16300
C941        C  0.73069865  0.44887956  0.00148092    -0.11100
C942        C  0.72768219  0.41345230  0.97886155     0.08200
C943        C  0.81306556  0.35374993  0.01740296     0.09200
S944        S  0.82543484  0.42996054  0.07331024    -0.25500
H945        H  0.76349255  0.47936341  0.04771792     0.19500
S946        S  0.68775425  0.40344201  0.94476435    -0.31200
H947        H  0.75283246  0.35647135  0.96661717     0.09800
C948        C  0.79957255  0.31735489  0.03257549     0.03000
C949        C  0.82513357  0.28500371  0.03326148    -0.13500
C950        C  0.86521987  0.28836791  0.02061997    -0.09100
C951        C  0.87943488  0.32661883  0.00870355     0.06400
C952        C  0.85299817  0.35822259  0.00627096    -0.14200
S953        S  0.74976523  0.31251957  0.05223864    -0.31200
H954        H  0.81274854  0.25743121  0.04337852     0.10700
S955        S  0.93110870  0.33619961  0.99576949    -0.28300
H956        H  0.86331445  0.38664866  0.99536396     0.07900
H957        H  0.65802786  0.41960643  0.96935576     0.26400
H958        H  0.75401792  0.27443464  0.06777489     0.21200
H959        H  0.92900398  0.37761225  0.99282066     0.26500
H960        H  0.82879086  0.38997573  0.08364041     0.15300
C961        C  0.86204421  0.71545529  0.96280206    -0.12000
C962        C  0.82080971  0.72018370  0.96043604     0.14600
C963        C  0.80628583  0.75825897  0.95315854     0.01500
C964        C  0.83247195  0.79100779  0.95221744    -0.16300
C965        C  0.87394311  0.78734500  0.95760132    -0.11100
C966        C  0.88872068  0.74811895  0.96071029     0.08200
C967        C  0.79326739  0.68594977  0.96883316     0.09200
S968        S  0.75419418  0.76708190  0.94534088    -0.25500
H969        H  0.81904379  0.81924792  0.94762541     0.19500
S970        S  0.94152332  0.73894212  0.96383964    -0.31200
H971        H  0.87323285  0.68606462  0.96767291     0.09800
C972        C  0.79058912  0.65237183  0.94368636     0.03000
C973        C  0.76215470  0.62231941  0.95183004    -0.13500
C974        C  0.73581023  0.62497573  0.98446627    -0.09100
C975        C  0.73898883  0.65861575  0.00975076     0.06400
C976        C  0.76794809  0.68808603  0.00208644    -0.14200
S977        S  0.82173731  0.64870744  0.89998010    -0.31200
H978        H  0.75995258  0.59683242  0.93217865     0.10700
S979        S  0.70521286  0.66747947  0.05044374    -0.28300
H980        H  0.76978367  0.71383309  0.02147085     0.07900
H981        H  0.93891339  0.69735319  0.96488415     0.26400
H982        H  0.80929901  0.61031488  0.88838982     0.21200
H983        H  0.67093114  0.65628086  0.02916067     0.26500
H984        H  0.74518831  0.72976298  0.92845022     0.15300
C985        C  0.32729393  0.87264914  0.96911256    -0.12000
C986        C  0.34565923  0.86972172  0.00587909     0.14600
C987        C  0.33242705  0.89424052  0.03728717     0.01500
C988        C  0.29948468  0.91870172  0.03204568    -0.16300
C989        C  0.27891769  0.92015352  0.99569636    -0.11100
C990        C  0.29409044  0.89665391  0.96364853     0.08200
C991        C  0.37579422  0.83808289  0.01075464     0.09200
S992        S  0.35494729  0.89407291  0.08553018    -0.25500
H993        H  0.28881642  0.93444094  0.05784550     0.19500
S994        S  0.26917370  0.89242054  0.91648460    -0.31200
H995        H  0.33738702  0.85363279  0.94515730     0.09800
C996        C  0.36694378  0.80302179  0.03183279     0.03000
C997        C  0.39481684  0.77229050  0.03242987    -0.13500
C998        C  0.43096922  0.77516882  0.01130506    -0.09100
C999        C  0.44004716  0.81070308  0.99098481     0.06400
C1000       C  0.41240618  0.84138170  0.99064013    -0.14200
S1001       S  0.31887898  0.79608457  0.05540216    -0.31200
H1002       H  0.38765531  0.74513609  0.04785984     0.10700
S1003       S  0.48672138  0.81900411  0.96535940    -0.28300
H1004       H  0.41938576  0.86804845  0.97426000     0.07900
H1005       H  0.30046598  0.87473176  0.89518775     0.26400
H1006       H  0.32528865  0.75772828  0.06947560     0.21200
H1007       H  0.50976521  0.79796025  0.99222841     0.26500
H1008       H  0.39288429  0.88268261  0.07234820     0.15300
C1009       C  0.66123994  0.78086460  0.05832197    -0.12000
C1010       C  0.67454366  0.80573712  0.02798764     0.14600
C1011       C  0.65359374  0.80543607  0.99179163     0.01500
C1012       C  0.61945821  0.78108413  0.98744112    -0.16300
C1013       C  0.60560051  0.75640727  0.01812707    -0.11100
C1014       C  0.62738415  0.75630422  0.05406668     0.08200
C1015       C  0.71019832  0.83150131  0.03573416     0.09200
S1016       S  0.66860042  0.83498922  0.94978755    -0.25500
H1017       H  0.60360373  0.78145046  0.95968528     0.19500
S1018       S  0.61428609  0.72400270  0.09470422    -0.31200
H1019       H  0.67775989  0.78075116  0.08567269     0.09800
C1020       C  0.70744981  0.87285455  0.03950092     0.03000
C1021       C  0.74215824  0.89584953  0.04525705    -0.13500
C1022       C  0.78039396  0.87892792  0.04623796    -0.09100
C1023       C  0.78165364  0.83688597  0.04931276     0.06400
C1024       C  0.74697400  0.81397768  0.04258435    -0.14200
S1025       S  0.65988193  0.89658152  0.03591762    -0.31200
H1026       H  0.73984491  0.92766055  0.04522482     0.10700
S1027       S  0.82324572  0.80997443  0.06747988    -0.28300
H1028       H  0.74848432  0.78198560  0.04340691     0.07900
H1029       H  0.63937253  0.74169253  0.12321243     0.26400
H1030       H  0.67438376  0.93591409  0.03746046     0.21200
H1031       H  0.83557843  0.84073533  0.09334523     0.26500
H1032       H  0.70818752  0.84252184  0.96088041     0.15300
loop_ 
_geom_bond_atom_site_label_1 
_geom_bond_atom_site_label_2 
_geom_bond_distance 
_geom_bond_site_symmetry_2 
_ccdc_geom_bond_type 
O1           Cu9   1.999       .  S
O1           C11   1.275       .  A
O2           Cu9   2.013       .  S
O2           C12   1.276   1_554  A
O3           Cu9   2.029       .  S
O3           C13   1.282   1_554  A
O4           Cu9   2.034       .  S
O4           C14   1.280       .  A
O5          Cu10   2.027       .  S
O5           C14   1.280   1_556  A
O6          Cu10   2.022       .  S
O6           C13   1.276       .  A
O7          Cu10   2.051       .  S
O7           C12   1.285       .  A
O8          Cu10   2.045       .  S
O8           C11   1.283   1_556  A
Cu9         Cu10   2.367   1_554  S
C11        C1013   1.501       .  S
C12         C151   1.485       .  S
C13          C49   1.480       .  S
C14         C998   1.492       .  S
C15          C16   1.500       .  S
C15          C21   1.545       .  S
C15          C19   1.554   1_556  S
C15         C965   1.556       .  S
C16          H23   1.082       .  S
C16          C17   1.367       .  D
C17          C18   1.590       .  S
C17         C336   1.494       .  S
C18          C22   1.571       .  S
C18          C20   1.530   1_556  S
C18          H24   1.106       .  S
C19          H25   1.082       .  S
C19          C20   1.379       .  D
C20         C359   1.525       .  S
C21          H26   1.080       .  S
C21          C22   1.379       .  D
C22          C34   1.543   1_556  S
C27          C28   1.502       .  S
C27          C33   1.511       .  S
C27          C31   1.567   1_554  S
C27        C1022   1.555       .  S
C28          H35   1.088       .  S
C28          C29   1.375       .  D
C29          C30   1.584       .  S
C29         C272   1.520   1_565  S
C30          C34   1.590       .  S
C30          C32   1.512   1_554  S
C30          H36   1.108   1_554  S
C31          H37   1.081       .  S
C31          C32   1.375       .  D
C32         C181   1.512       .  S
C33          H38   1.066       .  S
C33          C34   1.377       .  D
O39         Cu47   1.995       .  S
O39          C49   1.274   1_554  A
O40         Cu47   1.996       .  S
O40          C50   1.275   1_554  A
O41         Cu47   2.047       .  S
O41          C51   1.283   1_554  A
O42         Cu47   2.039       .  S
O42          C52   1.284   1_554  A
O43         Cu48   2.003       .  S
O43          C52   1.274       .  A
O44         Cu48   2.007       .  S
O44          C51   1.277       .  A
O45         Cu48   2.044       .  S
O45          C50   1.283       .  A
O46         Cu48   2.053       .  S
O46          C49   1.284       .  A
Cu47        Cu48   2.370   1_554  S
C50         C941   1.487   1_556  S
C51         C974   1.496       .  S
C52          C90   1.476       .  S
C53          C54   1.493       .  S
C53          C59   1.531       .  S
C53          C57   1.555   1_556  S
C53         C926   1.552       .  S
C54          H61   1.079       .  S
C54          C55   1.367       .  D
C55          C56   1.595       .  S
C55         C184   1.519       .  S
C56          C60   1.596       .  S
C56          C58   1.523   1_556  S
C56          H62   1.109   1_556  S
C57          H63   1.085       .  S
C57          C58   1.374       .  D
C58         C269   1.501       .  S
C59          H64   1.071       .  S
C59          C60   1.383       .  D
C60          C72   1.570   1_556  S
C65          C66   1.494       .  S
C65          C71   1.536       .  S
C65          C69   1.548   1_554  S
C65         C950   1.548       .  S
C66          H73   1.079       .  S
C66          C67   1.366       .  D
C67          C68   1.604       .  S
C67         C436   1.512       .  S
C68          C72   1.592       .  S
C68          C70   1.532   1_554  S
C68          H74   1.108   1_554  S
C69          H75   1.085       .  S
C69          C70   1.376       .  D
C70         C409   1.517       .  S
C71          H76   1.074       .  S
C71          C72   1.381       .  D
O77         Cu85   1.983       .  S
O77          C87   1.272       .  A
O78         Cu85   1.981       .  S
O78          C88   1.272   1_556  A
O79         Cu85   2.056       .  S
O79          C89   1.284   1_556  A
O80         Cu85   2.040       .  S
O80          C90   1.283       .  A
O81         Cu86   2.002       .  S
O81          C90   1.274   1_554  A
O82         Cu86   2.004       .  S
O82          C89   1.277       .  A
O83         Cu86   2.033       .  S
O83          C88   1.282       .  A
O84         Cu86   2.030       .  S
O84          C87   1.282   1_554  A
Cu85        Cu86   2.368   1_556  S
C87         C150   1.465       .  S
C88         C917   1.492       .  S
C89         C902   1.500       .  S
C91          C92   1.504       .  S
C91          C97   1.509       .  S
C91          C95   1.565   1_556  S
C91         C869   1.557       .  S
C92          H99   1.080       .  S
C92          C93   1.370       .  D
C93          C94   1.582       .  S
C93         C412   1.526       .  S
C94          C98   1.578       .  S
C94          C96   1.503   1_556  S
C94         H100   1.107       .  S
C95         H101   1.082       .  S
C95          C96   1.374       .  D
C96         C433   1.490       .  S
C97         H102   1.069       .  S
C97          C98   1.385       .  D
C98         C110   1.545   1_556  S
C103        C104   1.498       .  S
C103        C109   1.551       .  S
C103        C107   1.554       .  S
C103        C893   1.559       .  S
C104        H111   1.082       .  S
C104        C105   1.368       .  D
C105        C106   1.600       .  S
C105        C248   1.497       .  S
C106        C110   1.562       .  S
C106        C108   1.512   1_554  S
C106        H112   1.106       .  S
C107        H113   1.080   1_554  S
C107        C108   1.384   1_554  D
C108        C219   1.516       .  S
C109        H114   1.077       .  S
C109        C110   1.373       .  D
C115        C116   1.492   1_556  S
C115        C121   1.509       .  S
C115        C119   1.516       .  S
C115        C854   1.546       .  S
C116        H123   1.084       .  S
C116        C117   1.379       .  D
C117        C118   1.583   1_554  S
C117        C362   1.529       .  S
C118        C122   1.560       .  S
C118        C120   1.553       .  S
C118        H124   1.109   1_556  S
C119        H125   1.072       .  S
C119        C120   1.387       .  D
C120        C333   1.512       .  S
C121        H126   1.079       .  S
C121        C122   1.367       .  D
C122        C134   1.512       .  S
C127        C128   1.505       .  S
C127        C133   1.512       .  S
C127        C131   1.532   1_556  S
C127        C989   1.555       .  S
C128        H135   1.081       .  S
C128        C129   1.375       .  D
C129        C130   1.580       .  S
C129        C222   1.514   1_565  S
C130        C134   1.552       .  S
C130        C132   1.542   1_556  S
C130        H136   1.109       .  S
C131        H137   1.077       .  S
C131        C132   1.388       .  D
C132        C245   1.515       .  S
C133        H138   1.080   1_556  S
C133        C134   1.372       .  D
O139       Cu147   2.000       .  S
O139        C149   1.276   1_554  A
O140       Cu147   1.992       .  S
O140        C150   1.273   1_554  A
O141       Cu147   2.050       .  S
O141        C151   1.285   1_554  A
O142       Cu147   2.044       .  S
O142        C152   1.284   1_554  A
O143       Cu148   2.005       .  S
O143        C152   1.275       .  A
O144       Cu148   2.015       .  S
O144        C151   1.276       .  A
O145       Cu148   2.020       .  S
O145        C150   1.281       .  A
O146       Cu148   2.022       .  S
O146        C149   1.279       .  A
Cu147      Cu148   2.370   1_554  S
C149        C845   1.477       .  S
C152        C878   1.501       .  S
O153       Cu161   1.952       .  S
O153        C163   1.268       .  A
O154       Cu161   1.962       .  S
O154        C164   1.271       .  A
O155       Cu161   2.047       .  S
O155        C165   1.284       .  A
O156       Cu161   2.032       .  S
O156        C166   1.283       .  A
O157       Cu162   2.005       .  S
O157        C166   1.274   1_565  A
O158       Cu162   2.008       .  S
O158        C165   1.276   1_565  A
O159       Cu162   2.052       .  S
O159        C164   1.284   1_565  A
O160       Cu162   2.050       .  S
O160        C163   1.285   1_565  A
Cu161      Cu162   2.370   1_545  S
C163        C202   1.462       .  S
C164        C830   1.491       .  S
C165        C797   1.492       .  S
C166        C240   1.474       .  S
C167        C168   1.498       .  S
C167        C173   1.509       .  S
C167        C171   1.570       .  S
C167        C773   1.563       .  S
C168        H175   1.088       .  S
C168        C169   1.376       .  D
C169        C170   1.584       .  S
C169        C400   1.526       .  S
C170        C174   1.583       .  S
C170        C172   1.502       .  S
C170        H176   1.109       .  S
C171        H177   1.081       .  S
C171        C172   1.382       .  D
C172        C321   1.503   1_545  S
C173        H178   1.073       .  S
C173        C174   1.377       .  D
C174        C186   1.540       .  S
C179        C180   1.508   1_545  S
C179        C185   1.519       .  S
C179        C183   1.541       .  S
C179        C806   1.565       .  S
C180        H187   1.081       .  S
C180        C181   1.382       .  D
C181        C182   1.604   1_565  S
C182        C186   1.557       .  S
C182        C184   1.528       .  S
C182        H188   1.108       .  S
C183        H189   1.080       .  S
C183        C184   1.375       .  D
C185        H190   1.088       .  S
C185        C186   1.378       .  D
O191       Cu199   1.995       .  S
O191        C201   1.276       .  A
O192       Cu199   1.998   1_565  S
O192        C202   1.272   1_565  A
O193       Cu199   2.063       .  S
O193        C203   1.286       .  A
O194       Cu199   2.057       .  S
O194        C204   1.285       .  A
O195       Cu200   2.013       .  S
O195        C204   1.277       .  A
O196       Cu200   2.022       .  S
O196        C203   1.277       .  A
O197       Cu200   2.009       .  S
O197        C202   1.281       .  A
O198       Cu200   2.013       .  S
O198        C201   1.278       .  A
Cu199      Cu200   2.371       .  S
C201        C758   1.475       .  S
C203        C303   1.493       .  S
C204        C782   1.501       .  S
C205        C206   1.488       .  S
C205        C211   1.533       .  S
C205        C209   1.544       .  S
C205        C734   1.539       .  S
C206        H213   1.077   1_545  S
C206        C207   1.359       .  D
C207        C208   1.608       .  S
C207        C324   1.521   1_545  S
C208        C212   1.610       .  S
C208        C210   1.535       .  S
C208        H214   1.109       .  S
C209        H215   1.084       .  S
C209        C210   1.375       .  D
C210        C397   1.523       .  S
C211        H216   1.077       .  S
C211        C212   1.381       .  D
C212        C224   1.571       .  S
C217        C218   1.489       .  S
C217        C223   1.529       .  S
C217        C221   1.544       .  S
C217        C821   1.536       .  S
C218        H225   1.080       .  S
C218        C219   1.358       .  D
C219        C220   1.602       .  S
C220        C224   1.606       .  S
C220        C222   1.533       .  S
C220        H226   1.109       .  S
C221        H227   1.085   1_545  S
C221        C222   1.369       .  D
C223        H228   1.076       .  S
C223        C224   1.388       .  D
O229       Cu237   1.992       .  S
O229        C239   1.273       .  A
O230       Cu237   1.988       .  S
O230        C240   1.272       .  A
O231       Cu237   2.037       .  S
O231        C241   1.283       .  A
O232       Cu237   2.041       .  S
O232        C242   1.282       .  A
O233       Cu238   1.976   1_545  S
O233        C242   1.274       .  A
O234       Cu238   1.990       .  S
O234        C241   1.272   1_565  A
O235       Cu238   2.045       .  S
O235        C240   1.284   1_565  A
O236       Cu238   2.059   1_545  S
O236        C239   1.286       .  A
Cu237      Cu238   2.366   1_545  S
C239        C710   1.502       .  S
C241        C302   1.470       .  S
C242        C725   1.495       .  S
C243        C244   1.501       .  S
C243        C249   1.522       .  S
C243        C247   1.577   1_565  S
C243        C686   1.555       .  S
C244        H251   1.088       .  S
C244        C245   1.369       .  D
C245        C246   1.576   1_565  S
C246        C250   1.576       .  S
C246        C248   1.497       .  S
C246        H252   1.107       .  S
C247        H253   1.082       .  S
C247        C248   1.378       .  D
C249        H254   1.078       .  S
C249        C250   1.380   1_565  D
C250        C262   1.540       .  S
C255        C256   1.492       .  S
C255        C261   1.524       .  S
C255        C259   1.555       .  S
C255        C701   1.551       .  S
C256        H263   1.081       .  S
C256        C257   1.366       .  D
C257        C258   1.589       .  S
C257        C424   1.495       .  S
C258        C262   1.568       .  S
C258        C260   1.524       .  S
C258        H264   1.107       .  S
C259        H265   1.077       .  S
C259        C260   1.382       .  D
C260        C371   1.521   1_545  S
C261        H266   1.084       .  S
C261        C262   1.382       .  D
C267        C268   1.500       .  S
C267        C273   1.511       .  S
C267        C271   1.529       .  S
C267        C662   1.542       .  S
C268        H275   1.083       .  S
C268        C269   1.370       .  D
C269        C270   1.579       .  S
C270        C274   1.552       .  S
C270        C272   1.560       .  S
C270        H276   1.110       .  S
C271        H277   1.079   1_545  S
C271        C272   1.389       .  D
C273        H278   1.084       .  S
C273        C274   1.367       .  D
C274        C286   1.512       .  S
C279        C280   1.503   1_545  S
C279        C285   1.506       .  S
C279        C283   1.524       .  S
C279        C749   1.544       .  S
C280        H287   1.079       .  S
C280        C281   1.377       .  D
C281        C282   1.587   1_565  S
C281        C374   1.527       .  S
C282        C286   1.565       .  S
C282        C284   1.562       .  S
C282        H288   1.110       .  S
C283        H289   1.069       .  S
C283        C284   1.378       .  D
C284        C421   1.523       .  S
C285        H290   1.085       .  S
C285        C286   1.366       .  D
O291       Cu299   2.000       .  S
O291        C301   1.276       .  A
O292       Cu299   1.991       .  S
O292        C302   1.272       .  A
O293       Cu299   2.050       .  S
O293        C303   1.285       .  A
O294       Cu299   2.046       .  S
O294        C304   1.283       .  A
O295       Cu300   2.014       .  S
O295        C304   1.277   1_565  A
O296       Cu300   2.031       .  S
O296        C303   1.278   1_565  A
O297       Cu300   2.034       .  S
O297        C302   1.283   1_565  A
O298       Cu300   2.036       .  S
O298        C301   1.282   1_565  A
Cu299      Cu300   2.370   1_545  S
C301        C653   1.486       .  S
C304        C677   1.493       .  S
O305       Cu313   1.997       .  S
O305        C315   1.273   1_655  A
O306       Cu313   2.008       .  S
O306        C316   1.277   1_655  A
O307       Cu313   2.057       .  S
O307        C317   1.285   1_655  A
O308       Cu313   2.054       .  S
O308        C318   1.285   1_655  A
O309       Cu314   2.010       .  S
O309        C318   1.275       .  A
O310       Cu314   1.992       .  S
O310        C317   1.273       .  A
O311       Cu314   2.040       .  S
O311        C316   1.281       .  A
O312       Cu314   2.038       .  S
O312        C315   1.283       .  A
Cu313      Cu314   2.368   1_655  S
C315        C353   1.473       .  S
C316        C638   1.487       .  S
C317        C614   1.503       .  S
C318        C453   1.485       .  S
C319        C320   1.490       .  S
C319        C325   1.546       .  S
C319        C323   1.558   1_655  S
C319        C581   1.554       .  S
C320        H327   1.082       .  S
C320        C321   1.367       .  D
C321        C322   1.607       .  S
C322        C326   1.575       .  S
C322        C324   1.512   1_655  S
C322        H328   1.108   1_565  S
C323        H329   1.078       .  S
C323        C324   1.386       .  D
C325        H330   1.078       .  S
C325        C326   1.369       .  D
C326        C338   1.551   1_655  S
C331        C332   1.502       .  S
C331        C337   1.513       .  S
C331        C335   1.567       .  S
C331        C605   1.560       .  S
C332        H339   1.088       .  S
C332        C333   1.370       .  D
C333        C334   1.577       .  S
C334        C338   1.574       .  S
C334        C336   1.503   1_455  S
C334        H340   1.107       .  S
C335        H341   1.082   1_455  S
C335        C336   1.376   1_455  D
C337        H342   1.068       .  S
C337        C338   1.390       .  D
O343       Cu351   2.000       .  S
O343        C353   1.274       .  A
O344       Cu351   1.992       .  S
O344        C354   1.276   1_455  A
O345       Cu351   2.036       .  S
O345        C355   1.281   1_455  A
O346       Cu351   2.028       .  S
O346        C356   1.281   1_455  A
O347       Cu352   2.021       .  S
O347        C356   1.277       .  A
O348       Cu352   2.019       .  S
O348        C355   1.279       .  A
O349       Cu352   2.031       .  S
O349        C354   1.280       .  A
O350       Cu352   2.036       .  S
O350        C353   1.283   1_655  A
Cu351      Cu352   2.368   1_455  S
C354        C557   1.495       .  S
C355        C590   1.497       .  S
C356        C393   1.479       .  S
C357        C358   1.522   1_455  S
C357        C363   1.508   1_455  S
C357        C361   1.536       .  S
C357        C533   1.550       .  S
C358        H365   1.080       .  S
C358        C359   1.377       .  D
C359        C360   1.599   1_655  S
C360        C364   1.610   1_455  S
C360        C362   1.547       .  S
C360        H366   1.109       .  S
C361        H367   1.076       .  S
C361        C362   1.368       .  D
C363        H368   1.088       .  S
C363        C364   1.379       .  D
C364        C376   1.574   1_655  S
C369        C370   1.498       .  S
C369        C375   1.535       .  S
C369        C373   1.538   1_455  S
C369        C566   1.551       .  S
C370        H377   1.080       .  S
C370        C371   1.368       .  D
C371        C372   1.604   1_455  S
C372        C376   1.597   1_655  S
C372        C374   1.549       .  S
C372        H378   1.109       .  S
C373        H379   1.084       .  S
C373        C374   1.376       .  D
C375        H380   1.074       .  S
C375        C376   1.383       .  D
O381       Cu389   1.991       .  S
O381        C391   1.274   1_655  A
O382       Cu389   1.995       .  S
O382        C392   1.273   1_655  A
O383       Cu389   2.043       .  S
O383        C393   1.283       .  A
O384       Cu389   2.059       .  S
O384        C394   1.285   1_655  A
O385       Cu390   2.009       .  S
O385        C394   1.277       .  A
O386       Cu390   2.006       .  S
O386        C393   1.276   1_455  A
O387       Cu390   2.027       .  S
O387        C392   1.282       .  A
O388       Cu390   2.029       .  S
O388        C391   1.280       .  A
Cu389      Cu390   2.370   1_655  S
C391        C542   1.475       .  S
C392        C456   1.468   1_455  S
C394        C509   1.510       .  S
C395        C396   1.499       .  S
C395        C401   1.509       .  S
C395        C399   1.527   1_455  S
C395        C485   1.545       .  S
C396        H403   1.079       .  S
C396        C397   1.373       .  D
C397        C398   1.590       .  S
C398        C402   1.567       .  S
C398        C400   1.563   1_455  S
C398        H404   1.109       .  S
C399        H405   1.081       .  S
C399        C400   1.385       .  D
C401        H406   1.081   1_455  S
C401        C402   1.369       .  D
C402        C414   1.524       .  S
C407        C408   1.510   1_455  S
C407        C413   1.511       .  S
C407        C411   1.516       .  S
C407        C629   1.558       .  S
C408        H415   1.071       .  S
C408        C409   1.373       .  D
C409        C410   1.586       .  S
C410        C414   1.564   1_655  S
C410        C412   1.558   1_655  S
C410        H416   1.110       .  S
C411        H417   1.077       .  S
C411        C412   1.385       .  D
C413        H418   1.079       .  S
C413        C414   1.375       .  D
C419        C420   1.504       .  S
C419        C425   1.523       .  S
C419        C423   1.556   1_655  S
C419        C470   1.559       .  S
C420        H427   1.087       .  S
C420        C421   1.381       .  D
C421        C422   1.577       .  S
C422        C426   1.580       .  S
C422        C424   1.507   1_655  S
C422        H428   1.107       .  S
C423        H429   1.080       .  S
C423        C424   1.376       .  D
C425        H430   1.077       .  S
C425        C426   1.378       .  D
C426        C438   1.542   1_655  S
C431        C432   1.499       .  S
C431        C437   1.542       .  S
C431        C435   1.550       .  S
C431        C518   1.558       .  S
C432        H439   1.082       .  S
C432        C433   1.367       .  D
C433        C434   1.584       .  S
C434        C438   1.562       .  S
C434        C436   1.517   1_455  S
C434        H440   1.105       .  S
C435        H441   1.079   1_455  S
C435        C436   1.382   1_455  D
C437        H442   1.076       .  S
C437        C438   1.382       .  D
O443       Cu451   2.024       .  S
O443        C453   1.277   1_655  A
O444       Cu451   2.010       .  S
O444        C454   1.278       .  A
O445       Cu451   2.038       .  S
O445        C455   1.282       .  A
O446       Cu451   2.036       .  S
O446        C456   1.283       .  A
O447       Cu452   1.984       .  S
O447        C456   1.272   1_455  A
O448       Cu452   1.995       .  S
O448        C455   1.274   1_455  A
O449       Cu452   2.034       .  S
O449        C454   1.281   1_455  A
O450       Cu452   2.041       .  S
O450        C453   1.284       .  A
Cu451      Cu452   2.368   1_655  S
C454        C461   1.501       .  S
C455        C494   1.482       .  S
C457        C458   1.402   1_455  A
C457        C462   1.401       .  A
C457        H467   1.084       .  S
C458        C463   1.487       .  S
C458        C459   1.410       .  A
C459        C460   1.405       .  A
C459        S464   1.806       .  S
C460        C461   1.414       .  A
C460        H465   1.083       .  S
C461        C462   1.419   1_655  A
C462        S466   1.800       .  S
C463        C468   1.406       .  A
C463        C472   1.390       .  A
S464        H480   1.404       .  S
S466        H477   1.404       .  S
C468        C469   1.412       .  A
C468        S473   1.803       .  S
C469        C470   1.419       .  A
C469        H474   1.073       .  S
C470        C471   1.432       .  A
C471        C472   1.398       .  A
C471        S475   1.802       .  S
C472        H476   1.083       .  S
S473        H478   1.407       .  S
S475        H479   1.407       .  S
C481        C482   1.396       .  A
C481        C486   1.403       .  A
C481        H491   1.083       .  S
C482        C487   1.482       .  S
C482        C483   1.408   1_455  A
C483        C484   1.401       .  A
C483        S488   1.805       .  S
C484        C485   1.413   1_655  A
C484        H489   1.076       .  S
C485        C486   1.431       .  A
C486        S490   1.815       .  S
C487        C492   1.411   1_455  A
C487        C496   1.400       .  A
S488        H504   1.405       .  S
S490        H501   1.406       .  S
C492        C493   1.405       .  A
C492        S497   1.807       .  S
C493        C494   1.403       .  A
C493        H498   1.083       .  S
C494        C495   1.418   1_655  A
C495        C496   1.401       .  A
C495        S499   1.802       .  S
C496        H500   1.084       .  S
S497        H502   1.406       .  S
S499        H503   1.407       .  S
C505        C506   1.405       .  A
C505        C510   1.412   1_455  A
C505        H515   1.082   1_455  S
C506        C511   1.499       .  S
C506        C507   1.412       .  A
C507        C508   1.405       .  A
C507        S512   1.806       .  S
C508        C509   1.414       .  A
C508        H513   1.083       .  S
C509        C510   1.420   1_455  A
C510        S514   1.807       .  S
C511        C516   1.410       .  A
C511        C520   1.401       .  A
S512        H528   1.405       .  S
S514        H525   1.407       .  S
C516        C517   1.409       .  A
C516        S521   1.808       .  S
C517        C518   1.416       .  A
C517        H522   1.071       .  S
C518        C519   1.427       .  A
C519        C520   1.409       .  A
C519        S523   1.812       .  S
C520        H524   1.082       .  S
S521        H526   1.407       .  S
S523        H527   1.406       .  S
C529        C530   1.391       .  A
C529        C534   1.396       .  A
C529        H539   1.084       .  S
C530        C535   1.483       .  S
C530        C531   1.410   1_455  A
C531        C532   1.404       .  A
C531        S536   1.803       .  S
C532        C533   1.413   1_655  A
C532        H537   1.082       .  S
C533        C534   1.439       .  A
C534        S538   1.815       .  S
C535        C540   1.413       .  A
C535        C544   1.400   1_455  A
S536        H552   1.406       .  S
S538        H549   1.408       .  S
C540        C541   1.406       .  A
C540        S545   1.807       .  S
C541        C542   1.403       .  A
C541        H546   1.083       .  S
C542        C543   1.414   1_455  A
C543        C544   1.396       .  A
C543        S547   1.804       .  S
C544        H548   1.084       .  S
S545        H550   1.407       .  S
S547        H551   1.406       .  S
C553        C554   1.403       .  A
C553        C558   1.408       .  A
C553        H563   1.083       .  S
C554        C559   1.483       .  S
C554        C555   1.408   1_655  A
C555        C556   1.396       .  A
C555        S560   1.805       .  S
C556        C557   1.410   1_455  A
C556        H561   1.083       .  S
C557        C558   1.419       .  A
C558        S562   1.803       .  S
C559        C564   1.403   1_655  A
C559        C568   1.395       .  A
S560        H576   1.404       .  S
S562        H573   1.408       .  S
C564        C565   1.403       .  A
C564        S569   1.803       .  S
C565        C566   1.412       .  A
C565        H570   1.071       .  S
C566        C567   1.432   1_455  A
C567        C568   1.406       .  A
C567        S571   1.812       .  S
C568        H572   1.083       .  S
S569        H574   1.405       .  S
S571        H575   1.406       .  S
C577        C578   1.401       .  A
C577        C582   1.410       .  A
C577        H587   1.082       .  S
C578        C583   1.492       .  S
C578        C579   1.407       .  A
C579        C580   1.399       .  A
C579        S584   1.804       .  S
C580        C581   1.416       .  A
C580        H585   1.072       .  S
C581        C582   1.429       .  A
C582        S586   1.812       .  S
C583        C588   1.409       .  A
C583        C592   1.404   1_655  A
S584        H600   1.405       .  S
S586        H597   1.406       .  S
C588        C589   1.408       .  A
C588        S593   1.806       .  S
C589        C590   1.411       .  A
C589        H594   1.082       .  S
C590        C591   1.418   1_655  A
C591        C592   1.404       .  A
C591        S595   1.801       .  S
C592        H596   1.083       .  S
S593        H598   1.406       .  S
S595        H599   1.408       .  S
C601        C602   1.407       .  A
C601        C606   1.416       .  A
C601        H611   1.082       .  S
C602        C607   1.496       .  S
C602        C603   1.406       .  A
C603        C604   1.396       .  A
C603        S608   1.806       .  S
C604        C605   1.416       .  A
C604        H609   1.077       .  S
C605        C606   1.427       .  A
C606        S610   1.806       .  S
C607        C612   1.415       .  A
C607        C616   1.399       .  A
S608        H624   1.406       .  S
S610        H621   1.407       .  S
C612        C613   1.409       .  A
C612        S617   1.807   1_455  S
C613        C614   1.407       .  A
C613        H618   1.082   1_455  S
C614        C615   1.427       .  A
C615        C616   1.407       .  A
C615        S619   1.811       .  S
C616        H620   1.083       .  S
S617        H622   1.406       .  S
S619        H623   1.406       .  S
C625        C626   1.396       .  A
C625        C630   1.404       .  A
C625        H635   1.083       .  S
C626        C631   1.491       .  S
C626        C627   1.409   1_455  A
C627        C628   1.404       .  A
C627        S632   1.804       .  S
C628        C629   1.417   1_655  A
C628        H633   1.074       .  S
C629        C630   1.430       .  A
C630        S634   1.805       .  S
C631        C636   1.412       .  A
C631        C640   1.402   1_455  A
S632        H648   1.406       .  S
S634        H645   1.407       .  S
C636        C637   1.411       .  A
C636        S641   1.806       .  S
C637        C638   1.407       .  A
C637        H642   1.082       .  S
C638        C639   1.415   1_455  A
C639        C640   1.399       .  A
C639        S643   1.804       .  S
C640        H644   1.084       .  S
S641        H646   1.407       .  S
S643        H647   1.407       .  S
C649        C650   1.400       .  A
C649        C654   1.399       .  A
C649        H659   1.084       .  S
C650        C655   1.484       .  S
C650        C651   1.414   1_545  A
C651        C652   1.404       .  A
C651        S656   1.804       .  S
C652        C653   1.405   1_565  A
C652        H657   1.084       .  S
C653        C654   1.419       .  A
C654        S658   1.804       .  S
C655        C660   1.407   1_545  A
C655        C664   1.394       .  A
S656        H672   1.406       .  S
S658        H669   1.406       .  S
C660        C661   1.408   1_565  A
C660        S665   1.803       .  S
C661        C662   1.413       .  A
C661        H666   1.076   1_545  S
C662        C663   1.430       .  A
C663        C664   1.398       .  A
C663        S667   1.812       .  S
C664        H668   1.083       .  S
S665        H670   1.406       .  S
S667        H671   1.408       .  S
C673        C674   1.404       .  A
C673        C678   1.404       .  A
C673        H683   1.084       .  S
C674        C679   1.496       .  S
C674        C675   1.416   1_565  A
C675        C676   1.406       .  A
C675        S680   1.802       .  S
C676        C677   1.406       .  A
C676        H681   1.084       .  S
C677        C678   1.417   1_545  A
C678        S682   1.803       .  S
C679        C684   1.407       .  A
C679        C688   1.406       .  A
S680        H696   1.406       .  S
S682        H693   1.407       .  S
C684        C685   1.400       .  A
C684        S689   1.808       .  S
C685        C686   1.415       .  A
C685        H690   1.078       .  S
C686        C687   1.422       .  A
C687        C688   1.410       .  A
C687        S691   1.799       .  S
C688        H692   1.082       .  S
S689        H694   1.407       .  S
S691        H695   1.409       .  S
C697        C698   1.403       .  A
C697        C702   1.410       .  A
C697        H707   1.082       .  S
C698        C703   1.489       .  S
C698        C699   1.408       .  A
C699        C700   1.399       .  A
C699        S704   1.805       .  S
C700        C701   1.415       .  A
C700        H705   1.082       .  S
C701        C702   1.423       .  A
C702        S706   1.808       .  S
C703        C708   1.411       .  A
C703        C712   1.397       .  A
S704        H720   1.405       .  S
S706        H717   1.407       .  S
C708        C709   1.410       .  A
C708        S713   1.805   1_545  S
C709        C710   1.408       .  A
C709        H714   1.082   1_545  S
C710        C711   1.426       .  A
C711        C712   1.402       .  A
C711        S715   1.803       .  S
C712        H716   1.084       .  S
S713        H718   1.406       .  S
S715        H719   1.408       .  S
C721        C722   1.403       .  A
C721        C726   1.402       .  A
C721        H731   1.083       .  S
C722        C727   1.479       .  S
C722        C723   1.407   1_545  A
C723        C724   1.396       .  A
C723        S728   1.807       .  S
C724        C725   1.413   1_565  A
C724        H729   1.083       .  S
C725        C726   1.418       .  A
C726        S730   1.799       .  S
C727        C732   1.406       .  A
C727        C736   1.393       .  A
S728        H744   1.404       .  S
S730        H741   1.408       .  S
C732        C733   1.403       .  A
C732        S737   1.802   1_545  S
C733        C734   1.410       .  A
C733        H738   1.074   1_545  S
C734        C735   1.431       .  A
C735        C736   1.399       .  A
C735        S739   1.815       .  S
C736        H740   1.083       .  S
S737        H742   1.407       .  S
S739        H743   1.406       .  S
C745        C746   1.396       .  A
C745        C750   1.400       .  A
C745        H755   1.083   1_545  S
C746        C751   1.476       .  S
C746        C747   1.407       .  A
C747        C748   1.400       .  A
C747        S752   1.807       .  S
C748        C749   1.413       .  A
C748        H753   1.074       .  S
C749        C750   1.428       .  A
C750        S754   1.814   1_545  S
C751        C756   1.410       .  A
C751        C760   1.399       .  A
S752        H768   1.403       .  S
S754        H765   1.406       .  S
C756        C757   1.404       .  A
C756        S761   1.806       .  S
C757        C758   1.404       .  A
C757        H762   1.083       .  S
C758        C759   1.415       .  A
C759        C760   1.396       .  A
C759        S763   1.804       .  S
C760        H764   1.084       .  S
S761        H766   1.407       .  S
S763        H767   1.407       .  S
C769        C770   1.404       .  A
C769        C774   1.411       .  A
C769        H779   1.084       .  S
C770        C775   1.498       .  S
C770        C771   1.411       .  A
C771        C772   1.404       .  A
C771        S776   1.804       .  S
C772        C773   1.415       .  A
C772        H777   1.083       .  S
C773        C774   1.426       .  A
C774        S778   1.800       .  S
C775        C780   1.412       .  A
C775        C784   1.403       .  A
S776        H792   1.405       .  S
S778        H789   1.407       .  S
C780        C781   1.412       .  A
C780        S785   1.806       .  S
C781        C782   1.408       .  A
C781        H786   1.082       .  S
C782        C783   1.422       .  A
C783        C784   1.407       .  A
C783        S787   1.803       .  S
C784        H788   1.084       .  S
S785        H790   1.406   1_545  S
S787        H791   1.407       .  S
C793        C794   1.409       .  A
C793        C798   1.409       .  A
C793        H803   1.083       .  S
C794        C799   1.499       .  S
C794        C795   1.414   1_545  A
C795        C796   1.406       .  A
C795        S800   1.803       .  S
C796        C797   1.408   1_565  A
C796        H801   1.084       .  S
C797        C798   1.412       .  A
C798        S802   1.807       .  S
C799        C804   1.411   1_545  A
C799        C808   1.391       .  A
S800        H816   1.406       .  S
S802        H813   1.406       .  S
C804        C805   1.418       .  A
C804        S809   1.805       .  S
C805        C806   1.418   1_565  A
C805        H810   1.082       .  S
C806        C807   1.442       .  A
C807        C808   1.397       .  A
C807        S811   1.803       .  S
C808        H812   1.085       .  S
S809        H814   1.406       .  S
S811        H815   1.396       .  S
C817        C818   1.392       .  A
C817        C822   1.396       .  A
C817        H827   1.083       .  S
C818        C823   1.476       .  S
C818        C819   1.412       .  A
C819        C820   1.402       .  A
C819        S824   1.805       .  S
C820        C821   1.409       .  A
C820        H825   1.077       .  S
C821        C822   1.432       .  A
C822        S826   1.816       .  S
C823        C828   1.401       .  A
C823        C832   1.402       .  A
S824        H840   1.402       .  S
S826        H837   1.406       .  S
C828        C829   1.399       .  A
C828        S833   1.807       .  S
C829        C830   1.414       .  A
C829        H834   1.082       .  S
C830        C831   1.416       .  A
C831        C832   1.401       .  A
C831        S835   1.799   1_545  S
C832        H836   1.081   1_545  S
S833        H838   1.407       .  S
S835        H839   1.407       .  S
C841        C842   1.401       .  A
C841        C846   1.399       .  A
C841        H851   1.084   1_556  S
C842        C847   1.483       .  S
C842        C843   1.416       .  A
C843        C844   1.402       .  A
C843        S848   1.805       .  S
C844        C845   1.403       .  A
C844        H849   1.084       .  S
C845        C846   1.414       .  A
C846        S850   1.804   1_556  S
C847        C852   1.405       .  A
C847        C856   1.396   1_556  A
S848        H864   1.405       .  S
S850        H861   1.407   1_554  S
C852        C853   1.407       .  A
C852        S857   1.806       .  S
C853        C854   1.414       .  A
C853        H858   1.074       .  S
C854        C855   1.431   1_556  A
C855        C856   1.402       .  A
C855        S859   1.814       .  S
C856        H860   1.083       .  S
S857        H862   1.405       .  S
S859        H863   1.406       .  S
C865        C866   1.406       .  A
C865        C870   1.410       .  A
C865        H875   1.083       .  S
C866        C871   1.493       .  S
C866        C867   1.407       .  A
C867        C868   1.396       .  A
C867        S872   1.805       .  S
C868        C869   1.415       .  A
C868        H873   1.077       .  S
C869        C870   1.426       .  A
C870        S874   1.800       .  S
C871        C876   1.413       .  A
C871        C880   1.398       .  A
S872        H888   1.406       .  S
S874        H885   1.408       .  S
C876        C877   1.409   1_556  A
C876        S881   1.807   1_556  S
C877        C878   1.408   1_554  A
C877        H882   1.082       .  S
C878        C879   1.425       .  A
C879        C880   1.406       .  A
C879        S883   1.810       .  S
C880        H884   1.083       .  S
S881        H886   1.407       .  S
S883        H887   1.407       .  S
C889        C890   1.403       .  A
C889        C894   1.414       .  A
C889        H899   1.082       .  S
C890        C895   1.496       .  S
C890        C891   1.407       .  A
C891        C892   1.400       .  A
C891        S896   1.804       .  S
C892        C893   1.416       .  A
C892        H897   1.071       .  S
C893        C894   1.429       .  A
C894        S898   1.811       .  S
C895        C900   1.409       .  A
C895        C904   1.406   1_554  A
S896        H912   1.406       .  S
S898        H909   1.407       .  S
C900        C901   1.408       .  A
C900        S905   1.806       .  S
C901        C902   1.412       .  A
C901        H906   1.082       .  S
C902        C903   1.417   1_554  A
C903        C904   1.407       .  A
C903        S907   1.801       .  S
C904        H908   1.083       .  S
S905        H910   1.407       .  S
S907        H911   1.407       .  S
C913        C914   1.399   1_556  A
C913        C918   1.400       .  A
C913        H923   1.083       .  S
C914        C919   1.485       .  S
C914        C915   1.417       .  A
C915        C916   1.402       .  A
C915        S920   1.807       .  S
C916        C917   1.406       .  A
C916        H921   1.084       .  S
C917        C918   1.422   1_554  A
C918        S922   1.812       .  S
C919        C924   1.403       .  A
C919        C928   1.403   1_554  A
S920        H936   1.398       .  S
S922        H933   1.406       .  S
C924        C925   1.400       .  A
C924        S929   1.807       .  S
C925        C926   1.419   1_554  A
C925        H930   1.082       .  S
C926        C927   1.426       .  A
C927        C928   1.404       .  A
C927        S931   1.798       .  S
C928        H932   1.084       .  S
S929        H934   1.407       .  S
S931        H935   1.408       .  S
C937        C938   1.404   1_556  A
C937        C942   1.402       .  A
C937        H947   1.084       .  S
C938        C943   1.487       .  S
C938        C939   1.412       .  A
C939        C940   1.403       .  A
C939        S944   1.805       .  S
C940        C941   1.408       .  A
C940        H945   1.084       .  S
C941        C942   1.414   1_554  A
C942        S946   1.802       .  S
C943        C948   1.403       .  A
C943        C952   1.396       .  A
S944        H960   1.406       .  S
S946        H957   1.407       .  S
C948        C949   1.403       .  A
C948        S953   1.801       .  S
C949        C950   1.413       .  A
C949        H954   1.071       .  S
C950        C951   1.430       .  A
C951        C952   1.405       .  A
C951        S955   1.811   1_554  S
C952        H956   1.082   1_554  S
S953        H958   1.405       .  S
S955        H959   1.406       .  S
C961        C962   1.401       .  A
C961        C966   1.410       .  A
C961        H971   1.083       .  S
C962        C967   1.496       .  S
C962        C963   1.409       .  A
C963        C964   1.401       .  A
C963        S968   1.804       .  S
C964        C965   1.415       .  A
C964        H969   1.076       .  S
C965        C966   1.429       .  A
C966        S970   1.812       .  S
C967        C972   1.411       .  A
C967        C976   1.405   1_556  A
S968        H984   1.406       .  S
S970        H981   1.406       .  S
C972        C973   1.409       .  A
C972        S977   1.807       .  S
C973        C974   1.411       .  A
C973        H978   1.082       .  S
C974        C975   1.416   1_556  A
C975        C976   1.404       .  A
C975        S979   1.801       .  S
C976        H980   1.083       .  S
S977        H982   1.407       .  S
S979        H983   1.407       .  S
C985        C986   1.398   1_556  A
C985        C990   1.406       .  A
C985        H995   1.083       .  S
C986        C991   1.498       .  S
C986        C987   1.412       .  A
C987        C988   1.408       .  A
C987        S992   1.804       .  S
C988        C989   1.417   1_554  A
C988        H993   1.077       .  S
C989        C990   1.430       .  A
C990        S994   1.810       .  S
C991        C996   1.415       .  A
C991       C1000   1.404   1_554  A
S992       H1008   1.406       .  S
S994       H1005   1.407       .  S
C996        C997   1.411       .  A
C996       S1001   1.807       .  S
C997        C998   1.406       .  A
C997       H1002   1.083       .  S
C998        C999   1.417   1_554  A
C999       C1000   1.405       .  A
C999       S1003   1.804       .  S
C1000      H1004   1.084       .  S
S1001      H1006   1.406       .  S
S1003      H1007   1.407       .  S
C1009      C1010   1.398       .  A
C1009      C1014   1.403       .  A
C1009      H1019   1.083       .  S
C1010      C1015   1.491       .  S
C1010      C1011   1.417   1_554  A
C1011      C1012   1.407       .  A
C1011      S1016   1.808       .  S
C1012      C1013   1.409   1_556  A
C1012      H1017   1.084       .  S
C1013      C1014   1.424       .  A
C1014      S1018   1.810       .  S
C1015      C1020   1.405       .  A
C1015      C1024   1.403       .  A
S1016      H1032   1.404       .  S
S1018      H1029   1.407       .  S
C1020      C1021   1.403       .  A
C1020      S1025   1.807       .  S
C1021      C1022   1.417       .  A
C1021      H1026   1.078       .  S
C1022      C1023   1.426       .  A
C1023      C1024   1.406       .  A
C1023      S1027   1.799       .  S
C1024      H1028   1.083       .  S
S1025      H1030   1.407       .  S
S1027      H1031   1.408       .  S
