geometry optimzed in LAMMPS
_audit_creation_date              2020-12-01 
_audit_creation_method            'lammps2cif' 
_symmetry_space_group_name_H-M    'P1' 
_symmetry_Int_Tables_number       1 
_symmetry_cell_setting            triclinic 
loop_ 
_symmetry_equiv_pos_as_xyz 
  x,y,z 
_cell_length_a                    34.68221134 
_cell_length_b                    34.14729745280837 
_cell_length_c                    63.23413700584898 
_cell_angle_alpha                 89.97032614534683 
_cell_angle_beta                  90.60936460045014 
_cell_angle_gamma                 89.73096821430936 
loop_ 
_atom_site_label 
_atom_site_type_symbol 
_atom_site_fract_x 
_atom_site_fract_y 
_atom_site_fract_z 
_atom_site_charge 
N1          N  0.44680364  0.52301770  0.49230738    -0.36900
N2          N  0.00646404  0.03129913  0.52498402    -0.57400
N3          N  0.06489414  0.02126438  0.49383819    -0.36800
N4          N  0.00515022  0.51380118  0.46160990    -0.57400
C5          C  0.42802545  0.01514900  0.51040202     0.26700
C6          C  0.42622923  0.50683173  0.47631360     0.26700
C7          C  0.08537408  0.01704864  0.51208206     0.26700
C8          C  0.08430150  0.50257459  0.47831773     0.26700
C9          C  0.47489847  0.04487961  0.53486540     0.35400
C10         C  0.03706816  0.04510869  0.53593390     0.35400
C11         C  0.47431083  0.51719585  0.44851503     0.35400
C12         C  0.03682719  0.51599504  0.44953786     0.35400
C13         C  0.39503262  0.99380456  0.50597091    -0.22100
C14         C  0.39346855  0.48919932  0.48438660    -0.22100
C15         C  0.11870845  0.99597087  0.50816613    -0.22100
C16         C  0.11768715  0.48610705  0.48693373    -0.22100
C17         C  0.48539781  0.06798099  0.55199096    -0.23200
C18         C  0.02495245  0.06765833  0.55282585    -0.23200
C19         C  0.48632050  0.52269043  0.42793501    -0.23200
C20         C  0.02604543  0.52281823  0.42862385    -0.23200
C21         C  0.43736199  0.03181703  0.53016495    -0.18500
C22         C  0.43661194  0.50759007  0.45469004    -0.18500
C23         C  0.07358818  0.50272721  0.45646950    -0.18500
C24         C  0.07546899  0.03462633  0.53162287    -0.18500
H25         H  0.37349087  0.98412564  0.51705176     0.14400
H26         H  0.37066943  0.47456617  0.47571884     0.14400
H27         H  0.14127731  0.98848901  0.51943059     0.14400
H28         H  0.13960879  0.46961550  0.47870754     0.14400
H29         H  0.46657554  0.08210345  0.56323172     0.12700
H30         H  0.04264024  0.08123755  0.56489662     0.12700
H31         H  0.46845127  0.52423102  0.41382535     0.12700
H32         H  0.04475996  0.52413216  0.41505420     0.12700
H33         H  0.47004706  0.54201755  0.49082772     0.25900
H34         H  0.04121213  0.03975687  0.49169583     0.25900
N35         N  0.07229651  0.24330415  0.50084448    -0.36900
N36         N  0.51570542  0.25111364  0.53428269    -0.57400
N37         N  0.45645089  0.25795361  0.50151180    -0.36800
N38         N  0.51108834  0.24820001  0.46855932    -0.57400
C39         C  0.09602771  0.23809813  0.51783060     0.26700
C40         C  0.09386272  0.23916879  0.48320749     0.26700
C41         C  0.43807379  0.26917251  0.51924584     0.26700
C42         C  0.43654521  0.27334581  0.48492414     0.26700
C43         C  0.04718827  0.24640769  0.54685305     0.35400
C44         C  0.48423726  0.24828893  0.54671550     0.35400
C45         C  0.04106170  0.23983098  0.45583475     0.35400
C46         C  0.47857815  0.24825966  0.45649247     0.35400
C47         C  0.13285680  0.22953062  0.51067260    -0.22100
C48         C  0.13176755  0.23170530  0.48904887    -0.22100
C49         C  0.40656518  0.29232683  0.51411024    -0.22100
C50         C  0.40619439  0.29597978  0.49244453    -0.22100
C51         C  0.03526948  0.24326849  0.56774059    -0.23200
C52         C  0.49555350  0.24244440  0.56747775    -0.23200
C53         C  0.02748953  0.23356915  0.43542863    -0.23200
C54         C  0.48781343  0.23768949  0.43596651    -0.23200
C55         C  0.08591300  0.24078630  0.53962752    -0.18500
C56         C  0.08066641  0.24202141  0.46192909    -0.18500
C57         C  0.44243426  0.26360650  0.46335229    -0.18500
C58         C  0.44580257  0.25396863  0.53953437    -0.18500
H59         H  0.15837630  0.22265959  0.51993545     0.14400
H60         H  0.15628051  0.22723628  0.47893520     0.14400
H61         H  0.38567363  0.30457121  0.52488085     0.14400
H62         H  0.38476628  0.31187956  0.48326583     0.14400
H63         H  0.05311400  0.23995092  0.58175626     0.12700
H64         H  0.47730934  0.23932552  0.58113014     0.12700
H65         H  0.04452290  0.22737114  0.42157110     0.12700
H66         H  0.46841504  0.23587321  0.42248977     0.12700
H67         H  0.04368391  0.25180018  0.50115242     0.25900
H68         H  0.47724825  0.23587936  0.50089354     0.25900
O69         O  0.31099269  0.31500527  0.39195325    -0.80400
O70         O  0.15241357  0.33349336  0.35804531    -0.80400
O71         O  0.21005252  0.34567522  0.41783687    -0.80400
O72         O  0.27416130  0.35293428  0.32744162    -0.80400
O73         O  0.20194529  0.31043129  0.38924557    -0.80500
O74         O  0.29372304  0.31614892  0.35229836    -0.80400
O75         O  0.20976674  0.31974178  0.34578655    -0.80400
O76         O  0.29306394  0.34727905  0.42026944    -0.80400
C77         C  0.31400858  0.32114309  0.41139489     1.09300
C78         C  0.17350657  0.31198229  0.34632396     1.09200
C79         C  0.19532678  0.31592561  0.40859620     1.09300
C80         C  0.29331478  0.32307091  0.33304443     1.09200
O81         O  0.31641601  0.40093100  0.34899464    -0.80400
O82         O  0.16696792  0.38856094  0.39277627    -0.80500
O83         O  0.28933491  0.42827571  0.40693601    -0.80400
O84         O  0.20265403  0.38812729  0.32346962    -0.80400
O85         O  0.18293569  0.40820009  0.35380923    -0.80400
O86         O  0.33591695  0.39519374  0.39195273    -0.80400
O87         O  0.25804169  0.42653523  0.34674653    -0.80400
O88         O  0.21360409  0.42669014  0.40245847    -0.80400
Co89       Co  0.31042120  0.35765569  0.37144949     1.51500
Co90       Co  0.19750162  0.35793655  0.37111367     1.51700
Co91       Co  0.25132267  0.38559984  0.40958493     1.51600
Co92       Co  0.23386312  0.37473553  0.34778845     1.51500
O93         O  0.25425370  0.37067848  0.37803423    -1.42300
C94         C  0.29353359  0.42820128  0.34261569     1.09200
C95         C  0.17817902  0.42040229  0.40122500     1.09300
C96         C  0.32465503  0.42268792  0.40386819     1.09300
C97         C  0.18142679  0.41140736  0.33357639     1.09200
O98         O  0.32241547  0.18724716  0.60709996    -0.80400
O99         O  0.17373008  0.16422421  0.64690212    -0.80400
O100        O  0.22484940  0.16219209  0.58419914    -0.80400
O101        O  0.30464531  0.14035036  0.67340536    -0.80400
O102        O  0.21580669  0.19063407  0.61480055    -0.80500
O103        O  0.31703733  0.18100517  0.64879893    -0.80400
O104        O  0.23263052  0.17830544  0.65826010    -0.80400
O105        O  0.30413427  0.15365464  0.57953377    -0.80400
C106        C  0.32182080  0.18297856  0.58734742     1.09300
C107        C  0.19628158  0.18625558  0.65762005     1.09200
C108        C  0.20940065  0.18917217  0.59511478     1.09300
C109        C  0.31776248  0.17255601  0.66816257     1.09200
O110        O  0.33629948  0.09397097  0.64557985    -0.80400
O111        O  0.17775667  0.11844870  0.60697322    -0.80500
O112        O  0.29613954  0.07238877  0.59416223    -0.80400
O113        O  0.22510918  0.10837580  0.67379879    -0.80400
O114        O  0.20218684  0.08682940  0.64486795    -0.80400
O115        O  0.34672369  0.10664794  0.60311920    -0.80400
O116        O  0.27788140  0.07297269  0.65114344    -0.80400
O117        O  0.22069111  0.07889304  0.59449768    -0.80400
Co118      Co  0.32609728  0.14135932  0.62608928     1.51500
Co119      Co  0.21318438  0.13990328  0.63020815     1.51700
Co120      Co  0.26188090  0.11737105  0.59020338     1.51600
Co121      Co  0.26262220  0.12741220  0.65387295     1.51500
O122        O  0.26782874  0.12800711  0.62178156    -1.42300
C123        C  0.31356284  0.06692627  0.65188097     1.09200
C124        C  0.18657057  0.09096003  0.59437408     1.09300
C125        C  0.33164028  0.07797309  0.59347248     1.09300
C126        C  0.20477633  0.08361872  0.66493972     1.09200
N127        N  0.29078887  0.48341198  0.99199855    -0.36900
N128        N  0.22905827  0.49183936  0.96092820    -0.57400
N129        N  0.17561084  0.47493801  0.99386453    -0.36800
N130        N  0.23713148  0.46590503  0.02529195    -0.57400
C131        C  0.30936772  0.50228722  0.97623541     0.26700
C132        C  0.31365004  0.48528781  0.00954521     0.26700
C133        C  0.15395675  0.46930904  0.97622334     0.26700
C134        C  0.15839029  0.45492545  0.00952964     0.26700
C135        C  0.25864579  0.49903303  0.94789271     0.35400
C136        C  0.19646915  0.49597630  0.94925946     0.35400
C137        C  0.26997074  0.45279007  0.03466328     0.35400
C138        C  0.20737917  0.45219854  0.03672857     0.35400
C139        C  0.34409712  0.51671190  0.98399622    -0.22100
C140        C  0.34677049  0.50601600  0.00496205    -0.22100
C141        C  0.12368623  0.44441833  0.98040695    -0.22100
C142        C  0.12729155  0.43408558  0.00136833    -0.22100
C143        C  0.24470781  0.00578119  0.92752134    -0.23200
C144        C  0.20514326  0.00532640  0.92859575    -0.23200
C145        C  0.26113550  0.42916821  0.05173305    -0.23200
C146        C  0.22142778  0.42823580  0.05280333    -0.23200
C147        C  0.29719719  0.50487688  0.95469557    -0.18500
C148        C  0.30741810  0.46474138  0.02874929    -0.18500
C149        C  0.16802153  0.45843372  0.03122026    -0.18500
C150        C  0.15931749  0.48858639  0.95688147    -0.18500
H151        H  0.36567856  0.53271430  0.97532861     0.14400
H152        H  0.37088358  0.51180356  0.01549112     0.14400
H153        H  0.10141145  0.43486519  0.96948629     0.14400
H154        H  0.10804481  0.41503591  0.00990393     0.14400
H155        H  0.26118619  0.01254232  0.91356188     0.12700
H156        H  0.18520781  0.01006242  0.91555711     0.12700
H157        H  0.28112796  0.41431880  0.06230466     0.12700
H158        H  0.20487605  0.41137802  0.06395585     0.12700
H159        H  0.26647543  0.46590404  0.99022571     0.25900
H160        H  0.19730524  0.49572899  0.99582011     0.25900
N161        N  0.18489624  0.25903612  0.99991587    -0.36900
N162        N  0.24235811  0.24777817  0.96553024    -0.57400
N163        N  0.30250983  0.25708240  0.99588041    -0.36800
N164        N  0.24652908  0.26614017  0.03121528    -0.57400
C165        C  0.16065484  0.25144060  0.98350833     0.26700
C166        C  0.16357318  0.26547828  0.01763358     0.26700
C167        C  0.32371049  0.24357173  0.97966094     0.26700
C168        C  0.32299643  0.25028938  0.01383126     0.26700
C169        C  0.20942731  0.24503072  0.95392990     0.35400
C170        C  0.27240729  0.24626228  0.95190132     0.35400
C171        C  0.21736904  0.28729771  0.03922662     0.35400
C172        C  0.27908028  0.28468454  0.03691485     0.35400
C173        C  0.12308169  0.25390241  0.99081572    -0.22100
C174        C  0.12492562  0.26425143  0.01185943    -0.22100
C175        C  0.35861791  0.22923925  0.98769841    -0.22100
C176        C  0.35667828  0.23055241  0.00926431    -0.22100
C177        C  0.21874739  0.24198049  0.93267484    -0.23200
C178        C  0.25841321  0.24262438  0.93141940    -0.23200
C179        C  0.23144088  0.32054225  0.04919549    -0.23200
C180        C  0.27105530  0.31803396  0.04846343    -0.23200
C181        C  0.17106793  0.24316503  0.96204539    -0.18500
C182        C  0.17876901  0.27483703  0.03829656    -0.18500
C183        C  0.31553239  0.26891625  0.03312777    -0.18500
C184        C  0.31209001  0.24381860  0.95799577    -0.18500
H185        H  0.09665086  0.25001765  0.98186998     0.14400
H186        H  0.10019068  0.27107516  0.02144153     0.14400
H187        H  0.38362827  0.21898381  0.97932064     0.14400
H188        H  0.37959364  0.22220499  0.02013756     0.14400
H189        H  0.19899896  0.23887297  0.91942123     0.12700
H190        H  0.27500529  0.23951651  0.91711718     0.12700
H191        H  0.21490203  0.34317513  0.05691274     0.12700
H192        H  0.29152282  0.33829055  0.05537424     0.12700
H193        H  0.21469889  0.25922309  0.99893674     0.25900
H194        H  0.27830319  0.27517108  0.99459897     0.25900
O195        O  0.01325732  0.09264293  0.92098909    -0.80400
O196        O  0.05635013  0.16010177  0.84848313    -0.80400
O197        O  0.99818160  0.04117843  0.85697003    -0.80400
O198        O  0.03880466  0.19298294  0.89153906    -0.80400
O199        O  0.04606687  0.07979653  0.84887573    -0.80500
O200        O  0.01597523  0.16861684  0.91987665    -0.80400
O201        O  0.02085889  0.21218924  0.85466454    -0.80400
O202        O  0.01767052  0.05307590  0.89505101    -0.80400
C203        C  0.02846297  0.06283402  0.91327428     1.09300
C204        C  0.05076824  0.19649429  0.84633895     1.09200
C205        C  0.03087974  0.04622566  0.84855389     1.09300
C206        C  0.04199099  0.18755266  0.91084468     1.09200
O207        O  0.43898465  0.17072228  0.89833757    -0.80400
O208        O  0.46945536  0.09075982  0.83250093    -0.80500
O209        O  0.44150492  0.03486756  0.88811369    -0.80400
O210        O  0.44235612  0.18031494  0.85894467    -0.80400
O211        O  0.47863151  0.16994900  0.83202714    -0.80400
O212        O  0.43355792  0.08989346  0.90618218    -0.80400
O213        O  0.46460600  0.22796975  0.89219814    -0.80400
O214        O  0.42983537  0.09121996  0.85880491    -0.80400
Co215      Co  0.47779779  0.13029503  0.90739687     1.51500
Co216      Co  0.51219566  0.12514085  0.84292095     1.51700
Co217      Co  0.47363245  0.07606340  0.87838308     1.51600
Co218      Co  0.48929124  0.18382973  0.87701950     1.51500
O219        O  0.50066354  0.12657643  0.87506917    -1.42300
C220        C  0.43990483  0.20736425  0.90226306     1.09200
C221        C  0.43587403  0.08467420  0.83936338     1.09300
C222        C  0.42237847  0.05502151  0.90127507     1.09300
C223        C  0.44942748  0.18690287  0.83984658     1.09200
N224        N  0.15048814  0.38404711  0.72073854    -0.36900
N225        N  0.13900751  0.31937539  0.75068644    -0.57400
N226        N  0.11198280  0.37341019  0.78101516    -0.36800
N227        N  0.12186220  0.43841673  0.75113094    -0.57400
C228        C  0.15128337  0.35279508  0.70763404     0.26700
C229        C  0.14700672  0.41655211  0.70856677     0.26700
C230        C  0.09976672  0.33895834  0.78916642     0.26700
C231        C  0.09063856  0.40197526  0.78989579     0.26700
C232        C  0.15862383  0.30107607  0.73526717     0.35400
C233        C  0.14087778  0.29608832  0.76801271     0.35400
C234        C  0.13550584  0.46463328  0.73707299     0.35400
C235        C  0.11347254  0.45877365  0.76878274     0.35400
C236        C  0.14798985  0.36567567  0.68684554    -0.22100
C237        C  0.14620996  0.40599081  0.68743673    -0.22100
C238        C  0.06972991  0.34571083  0.80296797    -0.22100
C239        C  0.06475895  0.38544842  0.80393748    -0.22100
C240        C  0.17330790  0.26584010  0.74285388    -0.23200
C241        C  0.16300210  0.26321662  0.76381306    -0.23200
C242        C  0.13500151  0.50194780  0.74567031    -0.23200
C243        C  0.12078876  0.49826718  0.76574656    -0.23200
C244        C  0.15895621  0.31357938  0.71389448    -0.18500
C245        C  0.14659327  0.45543830  0.71621261    -0.18500
C246        C  0.09613264  0.44259346  0.78685585    -0.18500
C247        C  0.11796814  0.30227003  0.78613413    -0.18500
H248        H  0.14839142  0.34798063  0.67265674     0.14400
H249        H  0.14443313  0.42524505  0.67386455     0.14400
H250        H  0.55401871  0.32439841  0.81211163     0.14400
H251        H  0.54452399  0.40011465  0.81415077     0.14400
H252        H  0.18862253  0.24369997  0.73400280     0.12700
H253        H  0.16876129  0.23872885  0.77426702     0.12700
H254        H  0.14335470  0.02905324  0.73815494     0.12700
H255        H  0.11595051  0.02203414  0.77673135     0.12700
H256        H  0.15685391  0.38355139  0.73684083     0.25900
H257        H  0.13681423  0.37788323  0.77223883     0.25900
N258        N  0.34765680  0.37400793  0.72338310    -0.36900
N259        N  0.36432876  0.32307183  0.75930039    -0.57400
N260        N  0.36828824  0.39034532  0.78772903    -0.36800
N261        N  0.35389626  0.44125676  0.75126858    -0.57400
C262        C  0.35293057  0.33961896  0.71320441     0.26700
C263        C  0.35007118  0.40298993  0.70882747     0.26700
C264        C  0.38338264  0.36202573  0.80049848     0.26700
C265        C  0.37743213  0.42562747  0.79627131     0.26700
C266        C  0.35762773  0.29525255  0.74454421     0.35400
C267        C  0.36862016  0.30388559  0.77787920     0.35400
C268        C  0.34109261  0.45924923  0.73339271     0.35400
C269        C  0.35107242  0.46774313  0.76715389     0.35400
C270        C  0.35772165  0.34673857  0.69178957    -0.22100
C271        C  0.35699945  0.38671836  0.68913235    -0.22100
C272        C  0.40105365  0.37936543  0.81779017    -0.22100
C273        C  0.39703374  0.41926726  0.81521637    -0.22100
C274        C  0.35846960  0.25835994  0.75371890    -0.23200
C275        C  0.36497872  0.26381548  0.77476497    -0.23200
C276        C  0.32990567  0.49722288  0.73806606    -0.23200
C277        C  0.33575066  0.50247543  0.75937761    -0.23200
C278        C  0.35219050  0.30203957  0.72267991    -0.18500
C279        C  0.34323012  0.44337178  0.71260932    -0.18500
C280        C  0.36771740  0.46322129  0.78766622    -0.18500
C281        C  0.38145200  0.32094144  0.79705872    -0.18500
H282        H  0.36156518  0.32553042  0.67928878     0.14400
H283        H  0.35997039  0.40197068  0.67423708     0.14400
H284        H  0.41506796  0.36478796  0.83101046     0.14400
H285        H  0.40637007  0.44091496  0.82650163     0.14400
H286        H  0.35537426  0.23020445  0.74605622     0.12700
H287        H  0.36808313  0.24056906  0.78629125     0.12700
H288        H  0.32018507  0.01946026  0.72713373     0.12700
H289        H  0.33128965  0.02950517  0.76795739     0.12700
H290        H  0.33844354  0.37702479  0.73887684     0.25900
H291        H  0.35043887  0.38579920  0.77467614     0.25900
N292        N  0.11134278  0.11542957  0.28458075    -0.36900
N293        N  0.08243041  0.06266034  0.25323523    -0.57400
N294        N  0.06531836  0.12735172  0.22429224    -0.36800
N295        N  0.09598100  0.18050695  0.25549572    -0.57400
C296        C  0.12883446  0.08146225  0.29047296     0.26700
C297        C  0.13088842  0.14506612  0.29376354     0.26700
C298        C  0.06022574  0.09604681  0.21146068     0.26700
C299        C  0.07025537  0.15925791  0.21186666     0.26700
C300        C  0.08572929  0.03861976  0.27017343     0.35400
C301        C  0.05742179  0.04559503  0.23966056     0.35400
C302        C  0.10221817  0.20057056  0.27368028     0.35400
C303        C  0.08468169  0.20705648  0.24068762     0.35400
C304        C  0.16060361  0.08991257  0.30318885    -0.22100
C305        C  0.16137828  0.13010174  0.30564013    -0.22100
C306        C  0.06137563  0.10815303  0.19056056    -0.22100
C307        C  0.06687324  0.14809722  0.19081277    -0.22100
C308        C  0.06194071  0.00647312  0.26761816    -0.23200
C309        C  0.04413315  0.01077692  0.24819007    -0.23200
C310        C  0.09478259  0.24005822  0.27039727    -0.23200
C311        C  0.08477891  0.24428036  0.24947412    -0.23200
C312        C  0.11384456  0.04351931  0.28631424    -0.18500
C313        C  0.12075971  0.18505344  0.29201543    -0.18500
C314        C  0.07560699  0.19827392  0.21917304    -0.18500
C315        C  0.05232730  0.05741767  0.21836918    -0.18500
H316        H  0.18028345  0.06926661  0.31059715     0.14400
H317        H  0.18212985  0.14644186  0.31495716     0.14400
H318        H  0.05765695  0.09027503  0.17656878     0.14400
H319        H  0.06799577  0.16663092  0.17696762     0.14400
H320        H  0.05912773  0.48173668  0.27818369     0.12700
H321        H  0.02496942  0.48985663  0.24074561     0.12700
H322        H  0.09826374  0.26375928  0.28160467     0.12700
H323        H  0.07854119  0.27185068  0.24172024     0.12700
H324        H  0.08482002  0.11844750  0.27683984     0.25900
H325        H  0.06160430  0.12727948  0.24057746     0.25900
N326        N  0.34424065  0.12299399  0.27733819    -0.36900
N327        N  0.34268695  0.05811302  0.24637736    -0.57400
N328        N  0.35702149  0.11285921  0.21229290    -0.36800
N329        N  0.35896636  0.17689054  0.24333896    -0.57400
C330        C  0.32964218  0.09382474  0.28918206     0.26700
C331        C  0.33323416  0.15735432  0.28629420     0.26700
C332        C  0.35738008  0.07933945  0.20077019     0.26700
C333        C  0.36572290  0.14304810  0.19931143     0.26700
C334        C  0.33915933  0.03733133  0.26448952     0.35400
C335        C  0.34313860  0.03199276  0.23018914     0.35400
C336        C  0.36350308  0.20066770  0.26020363     0.35400
C337        C  0.37523825  0.19523865  0.22688546     0.35400
C338        C  0.30983202  0.10962538  0.30613770    -0.22100
C339        C  0.31151375  0.14972766  0.30410385    -0.22100
C340        C  0.36583547  0.08868410  0.17996076    -0.22100
C341        C  0.37001642  0.12877759  0.17894216    -0.22100
C342        C  0.33685637  0.99772279  0.25971956    -0.23200
C343        C  0.33818133  0.99449463  0.23813870    -0.23200
C344        C  0.38347336  0.23402320  0.25465870    -0.23200
C345        C  0.39091778  0.23064094  0.23351794    -0.23200
C346        C  0.33342174  0.05330592  0.28504941    -0.18500
C347        C  0.34456424  0.19516104  0.27949506    -0.18500
C348        C  0.37352622  0.18234754  0.20562730    -0.18500
C349        C  0.35190345  0.04050333  0.20860508    -0.18500
H350        H  0.29491032  0.09389320  0.31843302     0.14400
H351        H  0.29869340  0.17079807  0.31473351     0.14400
H352        H  0.36935434  0.06876885  0.16682301     0.14400
H353        H  0.37755290  0.14518529  0.16495247     0.14400
H354        H  0.33351005  0.47351174  0.27058166     0.12700
H355        H  0.33708463  0.46729960  0.22937901     0.12700
H356        H  0.39052905  0.25880372  0.26461735     0.12700
H357        H  0.40540036  0.25232402  0.22401636     0.12700
H358        H  0.36359492  0.11918519  0.26502959     0.25900
H359        H  0.35185741  0.11525273  0.22830265     0.25900
O360        O  0.40648952  0.34627871  0.10298432    -0.80400
O361        O  0.05839999  0.35382872  0.15262853    -0.80400
O362        O  0.53376117  0.30927104  0.10045743    -0.80400
O363        O  0.44586539  0.33784279  0.17346885    -0.80400
O364        O  0.07579201  0.35354765  0.10943445    -0.80500
O365        O  0.42377509  0.32655145  0.14147588    -0.80400
O366        O  0.00802581  0.31569625  0.15101341    -0.80400
O367        O  0.45555335  0.30676780  0.10056217    -0.80400
C368        C  0.42070380  0.31422188  0.09675747     1.09300
C369        C  0.04121386  0.32237684  0.15827241     1.09200
C370        C  0.06825391  0.32071029  0.10099345     1.09300
C371        C  0.42624078  0.31680273  0.16102524     1.09200
O372        O  0.38416701  0.39709417  0.13649858    -0.80400
O373        O  0.03817508  0.42785187  0.10405958    -0.80500
O374        O  0.45211742  0.38314235  0.07885420    -0.80400
O375        O  0.00543258  0.39357268  0.16951798    -0.80400
O376        O  0.02267093  0.43290310  0.14450558    -0.80400
O377        O  0.43419959  0.42293000  0.10445738    -0.80400
O378        O  0.43768619  0.40885410  0.15370470    -0.80400
O379        O  0.53231915  0.38365513  0.07902266    -0.80400
Co380      Co  0.43310432  0.37850308  0.12481997     1.51500
Co381      Co  0.04520261  0.39114560  0.12751619     1.51700
Co382      Co  0.49295876  0.34653527  0.09152917     1.51600
Co383      Co  0.47248039  0.36006208  0.15006680     1.51500
O384        O  0.49105154  0.37086959  0.12073956    -1.42300
C385        C  0.40116595  0.41421351  0.15185063     1.09200
C386        C  0.04557596  0.41616275  0.08573151     1.09300
C387        C  0.43384764  0.41381262  0.08485016     1.09300
C388        C  0.01612144  0.42726186  0.16359386     1.09200
C389        C  0.39311585  0.98223942  0.19927683    -0.02100
C390        C  0.36118111  0.00626026  0.19423772     0.07600
C391        C  0.33811370  0.99624358  0.17636679    -0.02200
C392        C  0.34913644  0.46499530  0.16269507    -0.02200
C393        C  0.38237175  0.44210338  0.16737984     0.07700
C394        C  0.40116876  0.44883123  0.18714692    -0.02400
Br395      Br  0.43536251  0.41067454  0.19969267    -0.01000
Br396      Br  0.42720830  0.99506514  0.22281169    -0.01000
Br397      Br  0.31746862  0.45300331  0.13835713    -0.01000
Br398      Br  0.29135814  0.02529870  0.17065996    -0.01000
C399        C  0.35825153  0.24524627  0.18676937    -0.02100
C400        C  0.38296502  0.21248320  0.18948181     0.07600
C401        C  0.41948262  0.21254501  0.18003152    -0.02200
C402        C  0.43086967  0.24474234  0.16792379    -0.02200
C403        C  0.40920219  0.27979991  0.16841868     0.07700
C404        C  0.37211924  0.27956738  0.17716929    -0.02400
Br405      Br  0.34083870  0.32638546  0.17622351    -0.01000
Br406      Br  0.30662181  0.24403828  0.19775995    -0.01000
Br407      Br  0.47433728  0.23860375  0.14964056    -0.01000
Br408      Br  0.45628136  0.17131328  0.18579278    -0.01000
C409        C  0.05853657  0.46066212  0.18956179    -0.02100
C410        C  0.02342599  0.45986081  0.17827735     0.07600
C411        C  0.00038234  0.49414690  0.17735793    -0.02200
C412        C  0.00854405  0.02583612  0.19089635    -0.02200
C413        C  0.04329478  0.02607685  0.20264006     0.07700
C414        C  0.06970751  0.49497009  0.20012234    -0.02400
Br415      Br  0.12275507  0.50190835  0.20842903    -0.01000
Br416      Br  0.09300648  0.41617337  0.18900550    -0.01000
Br417      Br  0.97255130  0.06879311  0.19284220    -0.01000
Br418      Br  0.46071765  0.00011265  0.15598992    -0.01000
C419        C  0.03399500  0.29058873  0.19388768    -0.02100
C420        C  0.05605112  0.29535887  0.17536873     0.07600
C421        C  0.08714417  0.26924414  0.17225977    -0.02200
C422        C  0.09561655  0.23958341  0.18738704    -0.02200
C423        C  0.06941752  0.23162750  0.20387113     0.07700
C424        C  0.03744579  0.25663579  0.20629747    -0.02400
Br425      Br  0.99768411  0.24453132  0.22646632    -0.01000
Br426      Br  0.00577336  0.33353591  0.20558422    -0.01000
Br427      Br  0.14295344  0.21001385  0.18551727    -0.01000
Br428      Br  0.11716509  0.27275558  0.14712626    -0.01000
C429        C  0.04021222  0.97453860  0.80394694    -0.02100
C430        C  0.08024274  0.46946718  0.80290157     0.07600
C431        C  0.10456211  0.48692987  0.81816644    -0.02200
C432        C  0.08866433  0.01113232  0.83388384    -0.02200
C433        C  0.04821547  0.01530621  0.83526220     0.07700
C434        C  0.02433625  0.99402341  0.82120775    -0.02400
Br435      Br  0.47044751  0.98755851  0.82612578    -0.01000
Br436      Br  0.50708664  0.45377560  0.78184771    -0.01000
Br437      Br  0.12216428  0.03608865  0.85432502    -0.01000
Br438      Br  0.15947588  0.47780240  0.81733504    -0.01000
C439        C  0.09497255  0.25324799  0.83871505    -0.02100
C440        C  0.07634464  0.21894192  0.83195937     0.07600
C441        C  0.08048991  0.20701462  0.81066959    -0.02200
C442        C  0.09305249  0.23411553  0.79539284    -0.02200
C443        C  0.10989552  0.26996230  0.80185244     0.07700
C444        C  0.11408275  0.27715152  0.82391473    -0.02400
Br445      Br  0.14450819  0.32071046  0.83394823    -0.01000
Br446      Br  0.09569760  0.26627214  0.86836814    -0.01000
Br447      Br  0.58056329  0.22383523  0.76604984    -0.01000
Br448      Br  0.56691845  0.15448189  0.80184491    -0.01000
C449        C  0.41742314  0.05975142  0.80309558    -0.02100
C450        C  0.40787526  0.06341657  0.82479251     0.07600
C451        C  0.37748816  0.53961919  0.83232317    -0.02200
C452        C  0.36246651  0.50870741  0.81967584    -0.02200
C453        C  0.37870783  0.49994570  0.79979865     0.07700
C454        C  0.40543798  0.02680283  0.79131117    -0.02400
Br455      Br  0.42961806  0.01695108  0.76446316    -0.01000
Br456      Br  0.44685166  0.09999990  0.78903989    -0.01000
Br457      Br  0.31964182  0.47803497  0.82953924    -0.01000
Br458      Br  0.35480607  0.54953809  0.85934037    -0.01000
C459        C  0.45034532  0.24261359  0.81322135    -0.02100
C460        C  0.42994389  0.22069924  0.82854613     0.07600
C461        C  0.39334176  0.23512369  0.83487980    -0.02200
C462        C  0.37854139  0.27068095  0.82637224    -0.02200
C463        C  0.40058078  0.29299869  0.81217111     0.07700
C464        C  0.43756189  0.27987592  0.80682139    -0.02400
Br465      Br  0.46922706  0.31194659  0.78869828    -0.01000
Br466      Br  0.49124237  0.22024674  0.79710805    -0.01000
Br467      Br  0.32714031  0.28809570  0.83293101    -0.01000
Br468      Br  0.36070168  0.20379019  0.85264619    -0.01000
C469        C  0.16617365  0.29394330  0.07746584    -0.02100
C470        C  0.15400142  0.27583419  0.05839020     0.07600
C471        C  0.11902801  0.25515071  0.06021311    -0.02200
C472        C  0.09073595  0.26793889  0.07472584    -0.02200
C473        C  0.09927401  0.29891027  0.08916339     0.07700
C474        C  0.13867925  0.30946548  0.09137731    -0.02400
Br475      Br  0.15778441  0.34194026  0.11415267    -0.01000
Br476      Br  0.21469816  0.27886842  0.09043409    -0.01000
Br477      Br  0.04180304  0.24132560  0.07442500    -0.01000
Br478      Br  0.11500172  0.20339246  0.04798210    -0.01000
C479        C  0.33946034  0.26111825  0.07043063    -0.02100
C480        C  0.34632784  0.27329824  0.04942325     0.07600
C481        C  0.38243776  0.28977397  0.04438917    -0.02200
C482        C  0.41045097  0.29355289  0.06022869    -0.02200
C483        C  0.39948773  0.29075680  0.08144438     0.07700
C484        C  0.36434668  0.27340539  0.08670644    -0.02400
Br485      Br  0.35075900  0.26653843  0.11593864    -0.01000
Br486      Br  0.29785413  0.22599156  0.07674037    -0.01000
Br487      Br  0.46354277  0.30224271  0.05284745    -0.01000
Br488      Br  0.39351076  0.31109385  0.01685244    -0.01000
C489        C  0.10770948  0.17817606  0.92686877    -0.02100
C490        C  0.07593234  0.20288977  0.92268918     0.07600
C491        C  0.07771401  0.24247753  0.92897575    -0.02200
C492        C  0.11017282  0.25647881  0.94033947    -0.02200
C493        C  0.13943945  0.23020680  0.94713829     0.07700
C494        C  0.13821980  0.19094638  0.94001684    -0.02400
Br495      Br  0.17793164  0.15412448  0.94843326    -0.01000
Br496      Br  0.11114776  0.12821226  0.91286154    -0.01000
Br497      Br  0.11497621  0.31166047  0.94631876    -0.01000
Br498      Br  0.03578803  0.27748855  0.92187874    -0.01000
C499        C  0.36239513  0.19929040  0.94282754    -0.02100
C500        C  0.34254061  0.23525168  0.94175860     0.07600
C501        C  0.35584329  0.26423077  0.92749414    -0.02200
C502        C  0.38805317  0.25649425  0.91431039    -0.02200
C503        C  0.40995896  0.22186799  0.91729064     0.07700
C504        C  0.39827372  0.19528072  0.93316665    -0.02400
Br505      Br  0.43305520  0.15533314  0.94391025    -0.01000
Br506      Br  0.34242057  0.15617356  0.95921586    -0.01000
Br507      Br  0.40143526  0.29276406  0.89229091    -0.01000
Br508      Br  0.33028971  0.31438968  0.92611495    -0.01000
C509        C  0.09678872  0.46778291  0.04125940    -0.02100
C510        C  0.13567953  0.46022358  0.04740898     0.07600
C511        C  0.14195425  0.45789520  0.06951090    -0.02200
C512        C  0.11214789  0.44404820  0.08246792    -0.02200
C513        C  0.07514737  0.43720930  0.07358306     0.07700
C514        C  0.06662992  0.45347721  0.05372910    -0.02400
Br515      Br  0.01393101  0.46207600  0.04538808    -0.01000
Br516      Br  0.08460593  0.50665930  0.01992119    -0.01000
Br517      Br  0.12181464  0.43782184  0.11239942    -0.01000
Br518      Br  0.18319871  0.48721104  0.08273698    -0.01000
C519        C  0.34712730  0.47268348  0.06267317    -0.02100
C520        C  0.34177292  0.45491487  0.04269954     0.07600
C521        C  0.37078594  0.42973426  0.03515033    -0.02200
C522        C  0.40348945  0.42067067  0.04779966    -0.02200
C523        C  0.40652212  0.43396766  0.06915891     0.07700
C524        C  0.37929458  0.46268728  0.07572908    -0.02400
Br525      Br  0.38722243  0.49187829  0.10153086    -0.01000
Br526      Br  0.31075585  0.51193658  0.07183152    -0.01000
Br527      Br  0.44549209  0.39421421  0.03405887    -0.01000
Br528      Br  0.36538144  0.40720676  0.00716815    -0.01000
C529        C  0.10873006  0.04033023  0.95386271    -0.02100
C530        C  0.12479021  0.00554910  0.94586568     0.07600
C531        C  0.10750631  0.48732623  0.92827474    -0.02200
C532        C  0.07543617  0.00492784  0.91789288    -0.02200
C533        C  0.05965655  0.04096767  0.92541566     0.07700
C534        C  0.07543825  0.05692203  0.94452375    -0.02400
Br535      Br  0.05263524  0.10112739  0.95921768    -0.01000
Br536      Br  0.13384406  0.06647831  0.97742849    -0.01000
Br537      Br  0.05286508  0.47724799  0.89419292    -0.01000
Br538      Br  0.12812724  0.43793959  0.91861256    -0.01000
C539        C  0.32612326  0.05424637  0.92980158    -0.02100
C540        C  0.32643420  0.01637821  0.93865709     0.07600
C541        C  0.35501160  0.48927000  0.93255863    -0.02200
C542        C  0.38484926  0.00067959  0.91889849    -0.02200
C543        C  0.38689063  0.03984368  0.91164921     0.07700
C544        C  0.35618065  0.06600973  0.91642394    -0.02400
Br545      Br  0.35352135  0.11765908  0.90387273    -0.01000
Br546      Br  0.28413253  0.08992906  0.93586489    -0.01000
Br547      Br  0.42324755  0.46241320  0.91103913    -0.01000
Br548      Br  0.35319572  0.43628012  0.94321378    -0.01000
C549        C  0.13696442  0.50672780  0.68754941    -0.02100
C550        C  0.16114958  0.48761389  0.70242513     0.07600
C551        C  0.19888168  0.00134523  0.70581023    -0.02200
C552        C  0.21256881  0.03349996  0.69420179    -0.02200
C553        C  0.18955385  0.05047004  0.67774397     0.07700
C554        C  0.15124192  0.03775167  0.67510613    -0.02400
Br555      Br  0.11677738  0.56674270  0.65675856    -0.01000
Br556      Br  0.08361417  0.49194449  0.68521452    -0.01000
Br557      Br  0.26174387  0.05526163  0.70262643    -0.01000
Br558      Br  0.23118854  0.97673533  0.72725970    -0.01000
C559        C  0.20792186  0.25469589  0.67063031    -0.02100
C560        C  0.18286212  0.22200701  0.66883985     0.07600
C561        C  0.14766304  0.22245940  0.67986843    -0.02200
C562        C  0.13908694  0.25370159  0.69359728    -0.02200
C563        C  0.16630505  0.28358904  0.69726813     0.07700
C564        C  0.20032076  0.28455698  0.68532306    -0.02400
Br565      Br  0.23728451  0.32614622  0.68945376    -0.01000
Br566      Br  0.25234938  0.26010158  0.65256446    -0.01000
Br567      Br  0.08975271  0.25577490  0.70743672    -0.01000
Br568      Br  0.11188702  0.17952654  0.67756781    -0.01000
C569        C  0.35980268  0.03189963  0.67692823    -0.02100
C570        C  0.32724754  0.03081645  0.66321986     0.07600
C571        C  0.30317486  0.99722881  0.66370227    -0.02200
C572        C  0.30826354  0.96847464  0.67956992    -0.02200
C573        C  0.33952801  0.47094727  0.69402902     0.07700
C574        C  0.36681355  0.50106365  0.69135653    -0.02400
Br575      Br  0.41409429  0.50011231  0.70769025    -0.01000
Br576      Br  0.39296762  0.07714370  0.67825437    -0.01000
Br577      Br  0.27078265  0.92711616  0.68198581    -0.01000
Br578      Br  0.26201415  0.99062747  0.64307371    -0.01000
C579        C  0.30227556  0.21318833  0.69964115    -0.02100
C580        C  0.32875373  0.20164284  0.68403570     0.07600
C581        C  0.36477809  0.22007428  0.68267675    -0.02200
C582        C  0.37329752  0.25190440  0.69592233    -0.02200
C583        C  0.34449260  0.26731439  0.70916364     0.07700
C584        C  0.30925692  0.24722472  0.71137431    -0.02400
Br585      Br  0.27106496  0.26537162  0.73118667    -0.01000
Br586      Br  0.25708312  0.18240082  0.70571488    -0.01000
Br587      Br  0.42480515  0.27286556  0.69674435    -0.01000
Br588      Br  0.40316468  0.19979068  0.66362873    -0.01000
C589        C  0.15144856  0.44053456  0.30040150    -0.02100
C590        C  0.15931033  0.44357629  0.32235122     0.07600
C591        C  0.14830096  0.47887427  0.33260686    -0.02200
C592        C  0.12889020  0.00885129  0.32121700    -0.02200
C593        C  0.12803694  0.00837496  0.29885090     0.07700
C594        C  0.14091022  0.47393839  0.28859646    -0.02400
Br595      Br  0.14864406  0.47243906  0.25853783    -0.01000
Br596      Br  0.15233190  0.39061601  0.28608167    -0.01000
Br597      Br  0.10199876  0.04941669  0.33655669    -0.01000
Br598      Br  0.16252285  0.98963201  0.36151354    -0.01000
C599        C  0.17656324  0.27034252  0.31364907    -0.02100
C600        C  0.15873050  0.27838218  0.33326737     0.06000
C601        C  0.12924215  0.25284767  0.34007723    -0.02200
C602        C  0.11718802  0.22136223  0.32697025    -0.02200
C603        C  0.13634510  0.21349794  0.30783238     0.07700
C604        C  0.16762577  0.23666535  0.30203401    -0.02400
Br605      Br  0.19735780  0.22266666  0.27741964    -0.01000
Br606      Br  0.20858223  0.30791993  0.30013857    -0.01000
Br607      Br  0.07428173  0.18910059  0.33493346    -0.01000
Br608      Br  0.10574478  0.25974249  0.36724457    -0.01000
C609        C  0.34201566  0.48008707  0.33068755    -0.02100
C610        C  0.30637556  0.46047400  0.32832097     0.07600
C611        C  0.28122090  0.47267291  0.31181421    -0.02200
C612        C  0.28705440  0.00767228  0.30107649    -0.02200
C613        C  0.32322191  0.02538295  0.30216895     0.07700
C614        C  0.35099977  0.01155692  0.31694182    -0.02400
Br615      Br  0.40125133  0.03526086  0.31784211    -0.01000
Br616      Br  0.37940549  0.46270471  0.35143602    -0.01000
Br617      Br  0.24692233  0.02857417  0.28271135    -0.01000
Br618      Br  0.24950449  0.43581256  0.29729701    -0.01000
C619        C  0.33808445  0.26488461  0.32640920    -0.02100
C620        C  0.31315320  0.29496031  0.31832482     0.07600
C621        C  0.30583992  0.29547140  0.29633413    -0.02200
C622        C  0.31287154  0.26167848  0.28419328    -0.02200
C623        C  0.33537868  0.23056796  0.29261178     0.07700
C624        C  0.35085216  0.23438499  0.31314558    -0.02400
Br625      Br  0.39069742  0.19848164  0.32276989    -0.01000
Br626      Br  0.35756126  0.26487078  0.35517783    -0.01000
Br627      Br  0.28951775  0.25792093  0.25644519    -0.01000
Br628      Br  0.29241928  0.34341049  0.28185298    -0.01000
C629        C  0.11390242  0.19936110  0.56890155    -0.02100
C630        C  0.11727318  0.23222536  0.55572222     0.07600
C631        C  0.15115166  0.25537831  0.55770398    -0.02200
C632        C  0.18230986  0.24223951  0.57073799    -0.02200
C633        C  0.17658080  0.21142287  0.58522787     0.07700
C634        C  0.13966182  0.19421050  0.58573628    -0.02400
Br635      Br  0.11775663  0.17489782  0.61137614    -0.01000
Br636      Br  0.07571278  0.15947393  0.56374943    -0.01000
Br637      Br  0.23217972  0.26638460  0.56906288    -0.01000
Br638      Br  0.15553512  0.30377481  0.54222070    -0.01000
C639        C  0.39851044  0.25803085  0.57033845    -0.02100
C640        C  0.41193232  0.23937836  0.55189044     0.07600
C641        C  0.39001574  0.20834891  0.54336491    -0.02200
C642        C  0.35542386  0.19692559  0.55283678    -0.02200
C643        C  0.34693124  0.20870207  0.57366267     0.07700
C644        C  0.36733792  0.24169875  0.58178657    -0.02400
Br645      Br  0.35069988  0.26754646  0.60725864    -0.01000
Br646      Br  0.42175894  0.30656911  0.57927383    -0.01000
Br647      Br  0.31641618  0.17393006  0.53503138    -0.01000
Br648      Br  0.40817664  0.17919855  0.51928010    -0.01000
C649        C  0.13933357  0.23423606  0.43744150    -0.02100
C650        C  0.10887726  0.25692739  0.44603335     0.07600
C651        C  0.10548851  0.29627681  0.43997679    -0.02200
C652        C  0.12973181  0.31132605  0.42464018    -0.02200
C653        C  0.16469207  0.29263905  0.41963671     0.07700
C654        C  0.16846018  0.25267317  0.42519202    -0.02400
Br655      Br  0.21166504  0.22309071  0.41499728    -0.01000
Br656      Br  0.14057178  0.17855658  0.44215887    -0.01000
Br657      Br  0.10325488  0.34051104  0.40352828    -0.01000
Br658      Br  0.06692166  0.33058740  0.45191629    -0.01000
C659        C  0.41610315  0.29937554  0.43094086    -0.02100
C660        C  0.41021733  0.27295437  0.44776731     0.07600
C661        C  0.37208832  0.25926721  0.45119766    -0.02200
C662        C  0.34036032  0.27613807  0.44017541    -0.02200
C663        C  0.34662654  0.30119120  0.42291323     0.07700
C664        C  0.38532606  0.30949896  0.41724331    -0.02400
Br665      Br  0.39759640  0.33701264  0.39157162    -0.01000
Br666      Br  0.46444571  0.32689839  0.42812125    -0.01000
Br667      Br  0.28845977  0.26550260  0.44892110    -0.01000
Br668      Br  0.36279816  0.21776937  0.47114659    -0.01000
C669        C  0.15786305  0.09061861  0.55727918    -0.02100
C670        C  0.15883931  0.07527433  0.57818255     0.07600
C671        C  0.13547080  0.04267610  0.58274182    -0.02200
C672        C  0.10918790  0.02812962  0.56737518    -0.02200
C673        C  0.10624087  0.04592164  0.54721021     0.07700
C674        C  0.13063907  0.07727337  0.54233565    -0.02400
Br675      Br  0.12513340  0.10387227  0.51536555    -0.01000
Br676      Br  0.19531635  0.12722564  0.54732932    -0.01000
Br677      Br  0.07714600  0.98384257  0.57387937    -0.01000
Br678      Br  0.14179636  0.01598594  0.60938851    -0.01000
C679        C  0.41173761  0.02236595  0.56701507    -0.02100
C680        C  0.40665630  0.03693020  0.54616458     0.07600
C681        C  0.37264076  0.05779812  0.54085469    -0.02200
C682        C  0.34458579  0.06360646  0.55618618    -0.02200
C683        C  0.35385370  0.05686769  0.57758307     0.07700
C684        C  0.38684975  0.03505959  0.58305329    -0.02400
Br685      Br  0.39688969  0.52184148  0.61223588    -0.01000
Br686      Br  0.45233959  0.48533539  0.57364396    -0.01000
Br687      Br  0.29337878  0.07976643  0.54757727    -0.01000
Br688      Br  0.36518529  0.08248549  0.51355606    -0.01000
C689        C  0.13751183  0.50072758  0.43734473    -0.02100
C690        C  0.10020429  0.48544132  0.44034642     0.07600
C691        C  0.08741769  0.45506660  0.42677720    -0.02200
C692        C  0.11108043  0.44183320  0.41046985    -0.02200
C693        C  0.15087576  0.44875050  0.41146970     0.07700
C694        C  0.16376086  0.48090023  0.42407588    -0.02400
Br695      Br  0.21591323  0.50054240  0.42276915    -0.01000
Br696      Br  0.15211906  0.04936631  0.45081487    -0.01000
Br697      Br  0.08719725  0.42757128  0.38392394    -0.01000
Br698      Br  0.03901907  0.42863757  0.43069348    -0.01000
C699        C  0.40793272  0.44636837  0.44086448    -0.02100
C700        C  0.41082927  0.48725347  0.43923359     0.07600
C701        C  0.38498468  0.50782801  0.42579184    -0.02200
C702        C  0.35741175  0.48705210  0.41347386    -0.02200
C703        C  0.35367620  0.44610040  0.41595936     0.07700
C704        C  0.37670750  0.42724925  0.43144029    -0.02400
Br705      Br  0.35754025  0.38287840  0.44635714    -0.01000
Br706      Br  0.44358716  0.41693982  0.45862354    -0.01000
Br707      Br  0.32269467  0.51488063  0.39478248    -0.01000
Br708      Br  0.38626106  0.56417070  0.42520573    -0.01000
N709        N  0.44680401  0.02301423  0.49230873    -0.36900
N710        N  0.00646495  0.53129412  0.52498552    -0.57400
N711        N  0.06489433  0.52126222  0.49383879    -0.36800
N712        N  0.00515036  0.01380282  0.46160876    -0.57400
C713        C  0.42802485  0.51515293  0.51040064     0.26700
C714        C  0.42622975  0.00682819  0.47631490     0.26700
C715        C  0.08537462  0.51704596  0.51208247     0.26700
C716        C  0.08430157  0.00257626  0.47831738     0.26700
C717        C  0.47489826  0.54488285  0.53486407     0.35400
C718        C  0.03706914  0.54510473  0.53593492     0.35400
C719        C  0.47431075  0.01719420  0.44851617     0.35400
C720        C  0.03682772  0.01599557  0.44953695     0.35400
C721        C  0.39503173  0.49380892  0.50596954    -0.22100
C722        C  0.39346941  0.98919515  0.48438793    -0.22100
C723        C  0.11870891  0.49596829  0.50816621    -0.22100
C724        C  0.11768712  0.98610907  0.48693372    -0.22100
C725        C  0.48539774  0.56798358  0.55198985    -0.23200
C726        C  0.02495359  0.56765415  0.55282700    -0.23200
C727        C  0.48632012  0.02268943  0.42793614    -0.23200
C728        C  0.02604657  0.02281774  0.42862274    -0.23200
C729        C  0.43736166  0.53182073  0.53016356    -0.18500
C730        C  0.43661219  0.00758731  0.45469127    -0.18500
C731        C  0.07358857  0.00272798  0.45646907    -0.18500
C732        C  0.07547000  0.53462342  0.53162335    -0.18500
H733        H  0.37348981  0.48413035  0.51705039     0.14400
H734        H  0.37067041  0.97456184  0.47572015     0.14400
H735        H  0.14127798  0.48848617  0.51943049     0.14400
H736        H  0.13960892  0.96961729  0.47870779     0.14400
H737        H  0.46657552  0.58210612  0.56323062     0.12700
H738        H  0.04264159  0.58123450  0.56489732     0.12700
H739        H  0.46845077  0.02422983  0.41382651     0.12700
H740        H  0.04476147  0.02413081  0.41505322     0.12700
H741        H  0.47004703  0.04201460  0.49082908     0.25900
H742        H  0.04121230  0.53975485  0.49169680     0.25900
N743        N  0.07229714  0.74330344  0.50084383    -0.36900
N744        N  0.51570410  0.75111158  0.53428244    -0.57400
N745        N  0.45645033  0.75795296  0.50151120    -0.36800
N746        N  0.51108842  0.74820001  0.46855902    -0.57400
C747        C  0.09602871  0.73809772  0.51782982     0.26700
C748        C  0.09386287  0.73916695  0.48320674     0.26700
C749        C  0.43807302  0.76917199  0.51924516     0.26700
C750        C  0.43654490  0.77334508  0.48492343     0.26700
C751        C  0.04719000  0.74640827  0.54685256     0.35400
C752        C  0.48423557  0.74828637  0.54671492     0.35400
C753        C  0.04106134  0.73982979  0.45583429     0.35400
C754        C  0.47857843  0.74825915  0.45649201     0.35400
C755        C  0.13285753  0.72952944  0.51067167    -0.22100
C756        C  0.13176772  0.73170304  0.48904791    -0.22100
C757        C  0.40656455  0.79232640  0.51410936    -0.22100
C758        C  0.40619400  0.79597913  0.49244364    -0.22100
C759        C  0.03527182  0.74326961  0.56774024    -0.23200
C760        C  0.49555121  0.74243954  0.56747709    -0.23200
C761        C  0.02748867  0.73356870  0.43542820    -0.23200
C762        C  0.48781418  0.73768895  0.43596612    -0.23200
C763        C  0.08591450  0.74078665  0.53962676    -0.18500
C764        C  0.08066621  0.74201947  0.46192842    -0.18500
C765        C  0.44243427  0.76360559  0.46335164    -0.18500
C766        C  0.44580116  0.75396769  0.53953369    -0.18500
H767        H  0.15837717  0.72265854  0.51993443     0.14400
H768        H  0.15628033  0.72723315  0.47893408     0.14400
H769        H  0.38567280  0.80457080  0.52487985     0.14400
H770        H  0.38476599  0.81187877  0.48326480     0.14400
H771        H  0.05311680  0.73995254  0.58175578     0.12700
H772        H  0.47730669  0.73931959  0.58112927     0.12700
H773        H  0.04452167  0.72737073  0.42157053     0.12700
H774        H  0.46841602  0.73587228  0.42248929     0.12700
H775        H  0.04368480  0.75180017  0.50115191     0.25900
H776        H  0.47724753  0.73587854  0.50089302     0.25900
O777        O  0.31099270  0.81500405  0.39195257    -0.80400
O778        O  0.15241389  0.83349268  0.35804565    -0.80400
O779        O  0.21005292  0.84567381  0.41783698    -0.80400
O780        O  0.27416114  0.85293426  0.32744144    -0.80400
O781        O  0.20194601  0.81043026  0.38924558    -0.80500
O782        O  0.29372235  0.81614863  0.35229808    -0.80400
O783        O  0.20976702  0.81974156  0.34578661    -0.80400
O784        O  0.29306435  0.84727685  0.42026915    -0.80400
C785        C  0.31400877  0.82114117  0.41139424     1.09300
C786        C  0.17350692  0.81198192  0.34632414     1.09200
C787        C  0.19532725  0.81592429  0.40859620     1.09300
C788        C  0.29331418  0.82307056  0.33304418     1.09200
O789        O  0.31641584  0.90093088  0.34899459    -0.80400
O790        O  0.16696870  0.88856018  0.39277666    -0.80500
O791        O  0.28933596  0.92827381  0.40693653    -0.80400
O792        O  0.20265369  0.88812720  0.32346986    -0.80400
O793        O  0.18293554  0.90819943  0.35380962    -0.80400
O794        O  0.33591767  0.89519233  0.39195258    -0.80400
O795        O  0.25804148  0.92653506  0.34674671    -0.80400
O796        O  0.21360505  0.92668900  0.40245918    -0.80400
Co797      Co  0.31042124  0.85765500  0.37144920     1.51500
Co798      Co  0.19750200  0.85793581  0.37111388     1.51700
Co799      Co  0.25132336  0.88559824  0.40958515     1.51600
Co800      Co  0.23386316  0.87473530  0.34778853     1.51500
O801        O  0.25425401  0.87067796  0.37803427    -1.42300
C802        C  0.29353334  0.92820129  0.34261583     1.09200
C803        C  0.17817994  0.92040141  0.40122548     1.09300
C804        C  0.32465601  0.92268601  0.40386845     1.09300
C805        C  0.18142627  0.91140687  0.33357679     1.09200
O806        O  0.32241446  0.68724756  0.60709967    -0.80400
O807        O  0.17372999  0.66422415  0.64690136    -0.80400
O808        O  0.22484973  0.66219164  0.58419861    -0.80400
O809        O  0.30464527  0.64034885  0.67340479    -0.80400
O810        O  0.21580726  0.69063411  0.61479993    -0.80500
O811        O  0.31703681  0.68100454  0.64879868    -0.80400
O812        O  0.23263050  0.67830441  0.65825969    -0.80400
O813        O  0.30413416  0.65365470  0.57953342    -0.80400
C814        C  0.32181985  0.68297908  0.58734712     1.09300
C815        C  0.19628163  0.68625486  0.65761961     1.09200
C816        C  0.20940137  0.68917211  0.59511414     1.09300
C817        C  0.31776225  0.67255471  0.66816223     1.09200
O818        O  0.33629928  0.59397073  0.64557890    -0.80400
O819        O  0.17775709  0.61844878  0.60697241    -0.80500
O820        O  0.29614000  0.57238865  0.59416195    -0.80400
O821        O  0.22510916  0.60837457  0.67379804    -0.80400
O822        O  0.20218633  0.58682934  0.64486708    -0.80400
O823        O  0.34672369  0.60664877  0.60311846    -0.80400
O824        O  0.27788124  0.57297183  0.65114215    -0.80400
O825        O  0.22069166  0.57889262  0.59449744    -0.80400
Co826      Co  0.32609697  0.64135945  0.62608872     1.51500
Co827      Co  0.21318442  0.63990332  0.63020748     1.51700
Co828      Co  0.26188116  0.61737069  0.59020294     1.51600
Co829      Co  0.26262213  0.62741119  0.65387231     1.51500
O830        O  0.26782868  0.62800696  0.62178100    -1.42300
C831        C  0.31356275  0.56692573  0.65187978     1.09200
C832        C  0.18657118  0.59095969  0.59437359     1.09300
C833        C  0.33164060  0.57797357  0.59347192     1.09300
C834        C  0.20477579  0.58361813  0.66493882     1.09200
N835        N  0.29078912  0.98341079  0.99199800    -0.36900
N836        N  0.22905829  0.99183737  0.96092767    -0.57400
N837        N  0.17561132  0.97493441  0.99386388    -0.36800
N838        N  0.23713203  0.96590214  0.02529121    -0.57400
C839        C  0.30936750  0.00228677  0.97623495     0.26700
C840        C  0.31365032  0.98528677  0.00954465     0.26700
C841        C  0.15395703  0.96930569  0.97622274     0.26700
C842        C  0.15839091  0.95492176  0.00952899     0.26700
C843        C  0.25864559  0.99903216  0.94789225     0.35400
C844        C  0.19646913  0.99597377  0.94925893     0.35400
C845        C  0.26997151  0.95278830  0.03466277     0.35400
C846        C  0.20737987  0.95219566  0.03672797     0.35400
C847        C  0.34409664  0.01671202  0.98399579    -0.22100
C848        C  0.34677033  0.00601571  0.00496156    -0.22100
C849        C  0.12368648  0.94441505  0.98040638    -0.22100
C850        C  0.12729197  0.93408211  0.00136773    -0.22100
C851        C  0.24470811  0.50578187  0.92752176    -0.23200
C852        C  0.20514351  0.50532827  0.92859622    -0.23200
C853        C  0.26113659  0.92916706  0.05173285    -0.23200
C854        C  0.22142886  0.92823396  0.05280308    -0.23200
C855        C  0.29719681  0.00487670  0.95469515    -0.18500
C856        C  0.30741868  0.96474025  0.02874875    -0.18500
C857        C  0.16802213  0.95843025  0.03121960    -0.18500
C858        C  0.15931764  0.98858327  0.95688092    -0.18500
H859        H  0.36567766  0.03271513  0.97532825     0.14400
H860        H  0.37088329  0.01180369  0.01549064     0.14400
H861        H  0.10141147  0.93486217  0.96948579     0.14400
H862        H  0.10804514  0.91503260  0.00990338     0.14400
H863        H  0.26118663  0.51254218  0.91356224     0.12700
H864        H  0.18520819  0.51006452  0.91555755     0.12700
H865        H  0.28112927  0.91431862  0.06230473     0.12700
H866        H  0.20487738  0.91137650  0.06395585     0.12700
H867        H  0.26647601  0.96590240  0.99022508     0.25900
H868        H  0.19730564  0.99572546  0.99581947     0.25900
N869        N  0.18489754  0.75903177  0.99991715    -0.36900
N870        N  0.24235843  0.74777526  0.96553116    -0.57400
N871        N  0.30251075  0.75708001  0.99588113    -0.36800
N872        N  0.24653089  0.76613876  0.03121618    -0.57400
C873        C  0.16065545  0.75143997  0.98350936     0.26700
C874        C  0.16357474  0.76547787  0.01763454     0.26700
C875        C  0.32371119  0.74356903  0.97966165     0.26700
C876        C  0.32299791  0.75028789  0.01383188     0.26700
C877        C  0.20942752  0.74502689  0.95393097     0.35400
C878        C  0.27240751  0.74625845  0.95190220     0.35400
C879        C  0.21737088  0.78729606  0.03922766     0.35400
C880        C  0.27908204  0.78468357  0.03691537     0.35400
C881        C  0.12308239  0.75390717  0.99081647    -0.22100
C882        C  0.12492716  0.76425644  0.01186011    -0.22100
C883        C  0.35861893  0.72923715  0.98769902    -0.22100
C884        C  0.35667981  0.73055104  0.00926491    -0.22100
C885        C  0.21874745  0.74197537  0.93267594    -0.23200
C886        C  0.25841326  0.74261927  0.93142039    -0.23200
C887        C  0.23144263  0.82054096  0.04919623    -0.23200
C888        C  0.27105704  0.81803310  0.04846385    -0.23200
C889        C  0.17106806  0.74316265  0.96204653    -0.18500
C890        C  0.17877083  0.77483554  0.03829756    -0.18500
C891        C  0.31553413  0.76891533  0.03312825    -0.18500
C892        C  0.31209033  0.74381527  0.95799654    -0.18500
H893        H  0.09665120  0.75002584  0.98187063     0.14400
H894        H  0.10019297  0.77108365  0.02144212     0.14400
H895        H  0.38362922  0.71898170  0.97932119     0.14400
H896        H  0.37959549  0.72220418  0.02013808     0.14400
H897        H  0.19899894  0.73886721  0.91942241     0.12700
H898        H  0.27500524  0.73951062  0.91711818     0.12700
H899        H  0.21490373  0.84317388  0.05691341     0.12700
H900        H  0.29152454  0.83829004  0.05537438     0.12700
H901        H  0.21470023  0.75921131  0.99893868     0.25900
H902        H  0.27830380  0.77516820  0.99459969     0.25900
O903        O  0.01325634  0.59264423  0.92098905    -0.80400
O904        O  0.05634997  0.66010153  0.84848319    -0.80400
O905        O  0.99817983  0.54117900  0.85697023    -0.80400
O906        O  0.03880545  0.69298150  0.89153931    -0.80400
O907        O  0.04606557  0.57979611  0.84887553    -0.80500
O908        O  0.01597341  0.66861804  0.91987685    -0.80400
O909        O  0.02085955  0.71218953  0.85466483    -0.80400
O910        O  0.01766870  0.55307637  0.89505131    -0.80400
C911        C  0.02846174  0.56283507  0.91327441     1.09300
C912        C  0.05076852  0.69649417  0.84633911     1.09200
C913        C  0.03087765  0.54622557  0.84855374     1.09300
C914        C  0.04199061  0.68755216  0.91084507     1.09200
O915        O  0.43898561  0.67072138  0.89833795    -0.80400
O916        O  0.46945600  0.59075869  0.83250141    -0.80500
O917        O  0.44150622  0.53486675  0.88811418    -0.80400
O918        O  0.44235575  0.68031302  0.85894482    -0.80400
O919        O  0.47863114  0.66994780  0.83202720    -0.80400
O920        O  0.43355925  0.58989271  0.90618266    -0.80400
O921        O  0.46460511  0.72796941  0.89219781    -0.80400
O922        O  0.42983627  0.59121955  0.85880552    -0.80400
Co923      Co  0.47779906  0.63029427  0.90739722     1.51500
Co924      Co  0.51219610  0.62514030  0.84292120     1.51700
Co925      Co  0.47363362  0.57606270  0.87838336     1.51600
Co926      Co  0.48929092  0.68382935  0.87701949     1.51500
O927        O  0.50066436  0.62657604  0.87506946    -1.42300
C928        C  0.43990505  0.70736344  0.90226326     1.09200
C929        C  0.43587455  0.58467398  0.83936397     1.09300
C930        C  0.42237988  0.55502069  0.90127565     1.09300
C931        C  0.44942675  0.68690099  0.83984669     1.09200
N932        N  0.15049111  0.88404602  0.72073940    -0.36900
N933        N  0.13900971  0.81937452  0.75068703    -0.57400
N934        N  0.11198946  0.87341012  0.78101690    -0.36800
N935        N  0.12187047  0.93841643  0.75113307    -0.57400
C936        C  0.15128473  0.85279416  0.70763472     0.26700
C937        C  0.14700983  0.91655139  0.70856789     0.26700
C938        C  0.09977110  0.83895861  0.78916749     0.26700
C939        C  0.09064638  0.90197598  0.78989766     0.26700
C940        C  0.15862491  0.80107462  0.73526751     0.35400
C941        C  0.14087964  0.79608717  0.76801319     0.35400
C942        C  0.13551348  0.96463261  0.73707478     0.35400
C943        C  0.11348310  0.95877348  0.76878517     0.35400
C944        C  0.14799027  0.86567523  0.68684634    -0.22100
C945        C  0.14621145  0.90599043  0.68743779    -0.22100
C946        C  0.06973409  0.84571215  0.80296878    -0.22100
C947        C  0.06476498  0.88545002  0.80393863    -0.22100
C948        C  0.17330800  0.76583806  0.74285399    -0.23200
C949        C  0.16300268  0.76321472  0.76381325    -0.23200
C950        C  0.13501133  0.00194707  0.74567229    -0.23200
C951        C  0.12080056  0.99826672  0.76574899    -0.23200
C952        C  0.15895703  0.81357814  0.71389482    -0.18500
C953        C  0.14659814  0.95543753  0.71621395    -0.18500
C954        C  0.09614255  0.94259396  0.78685819    -0.18500
C955        C  0.11797057  0.80226944  0.78613475    -0.18500
H956        H  0.14839055  0.84798043  0.67265744     0.14400
H957        H  0.14443439  0.92524495  0.67386574     0.14400
H958        H  0.55401527  0.82439589  0.81211080     0.14400
H959        H  0.54451828  0.90011148  0.81414998     0.14400
H960        H  0.18862155  0.74369742  0.73400271     0.12700
H961        H  0.16876125  0.73872660  0.77426706     0.12700
H962        H  0.14334493  0.52905413  0.73815314     0.12700
H963        H  0.11593711  0.52203457  0.77672873     0.12700
H964        H  0.15685791  0.88354981  0.73684158     0.25900
H965        H  0.13682137  0.87788202  0.77224075     0.25900
N966        N  0.34765695  0.87400622  0.72338317    -0.36900
N967        N  0.36432580  0.82306945  0.75930074    -0.57400
N968        N  0.36828489  0.89034264  0.78772965    -0.36800
N969        N  0.35389617  0.94125462  0.75126888    -0.57400
C970        C  0.35293050  0.83961722  0.71320446     0.26700
C971        C  0.35007183  0.90298829  0.70882759     0.26700
C972        C  0.38337793  0.86202263  0.80049932     0.26700
C973        C  0.37742912  0.92562458  0.79627211     0.26700
C974        C  0.35762534  0.79525045  0.74454431     0.35400
C975        C  0.36861564  0.80388297  0.77787959     0.35400
C976        C  0.34109337  0.95924748  0.73339293     0.35400
C977        C  0.35107182  0.96774078  0.76715428     0.35400
C978        C  0.35772202  0.84673691  0.69178965    -0.22100
C979        C  0.35700022  0.88671674  0.68913248    -0.22100
C980        C  0.40104816  0.87936188  0.81779137    -0.22100
C981        C  0.39702926  0.91926383  0.81521756    -0.22100
C982        C  0.35846592  0.75835775  0.75371894    -0.23200
C983        C  0.36497368  0.76381298  0.77476517    -0.23200
C984        C  0.32990658  0.99722116  0.73806633    -0.23200
C985        C  0.33575069  0.00247332  0.75937796    -0.23200
C986        C  0.35218962  0.80203775  0.72267990    -0.18500
C987        C  0.34323103  0.94337020  0.71260949    -0.18500
C988        C  0.36771610  0.96321868  0.78766676    -0.18500
C989        C  0.38144701  0.82093835  0.79705933    -0.18500
H990        H  0.36156544  0.82552877  0.67928885     0.14400
H991        H  0.35997145  0.90196913  0.67423725     0.14400
H992        H  0.41506132  0.86478404  0.83101191     0.14400
H993        H  0.40636516  0.94091127  0.82650305     0.14400
H994        H  0.35537063  0.73020237  0.74605614     0.12700
H995        H  0.36807697  0.74056640  0.78629143     0.12700
H996        H  0.32018377  0.51946180  0.72713346     0.12700
H997        H  0.33128981  0.52950740  0.76795696     0.12700
H998        H  0.33844343  0.87702310  0.73887684     0.25900
H999        H  0.35043644  0.88579701  0.77467636     0.25900
N1000       N  0.11134409  0.61543014  0.28458034    -0.36900
N1001       N  0.08243184  0.56266131  0.25323480    -0.57400
N1002       N  0.06531824  0.62735305  0.22429227    -0.36800
N1003       N  0.09598039  0.68050792  0.25549596    -0.57400
C1004       C  0.12883634  0.58146295  0.29047220     0.26700
C1005       C  0.13088963  0.64506672  0.29376311     0.26700
C1006       C  0.06022628  0.59604821  0.21146057     0.26700
C1007       C  0.07025516  0.65925948  0.21186685     0.26700
C1008       C  0.08573101  0.53862055  0.27017289     0.35400
C1009       C  0.05742299  0.54559612  0.23966024     0.35400
C1010       C  0.10221756  0.70057112  0.27368064     0.35400
C1011       C  0.08468052  0.70705765  0.24068811     0.35400
C1012       C  0.16060579  0.58991337  0.30318785    -0.22100
C1013       C  0.16138009  0.63010251  0.30563931    -0.22100
C1014       C  0.06137631  0.60815473  0.19056050    -0.22100
C1015       C  0.06687363  0.64809901  0.19081289    -0.22100
C1016       C  0.06194240  0.50647394  0.26761768    -0.23200
C1017       C  0.04413449  0.51077793  0.24818970    -0.23200
C1018       C  0.09478125  0.74005876  0.27039797    -0.23200
C1019       C  0.08477725  0.74428130  0.24947488    -0.23200
C1020       C  0.11384653  0.54352003  0.28631353    -0.18500
C1021       C  0.12076010  0.68505385  0.29201544    -0.18500
C1022       C  0.07560630  0.69827546  0.21917344    -0.18500
C1023       C  0.05232839  0.55741886  0.21836893    -0.18500
H1024       H  0.18028604  0.56926745  0.31059587     0.14400
H1025       H  0.18213171  0.64644272  0.31495627     0.14400
H1026       H  0.05765808  0.59027682  0.17656865     0.14400
H1027       H  0.06799640  0.66663292  0.17696784     0.14400
H1028       H  0.05912585  0.98173595  0.27818422     0.12700
H1029       H  0.02496819  0.98985556  0.24074594     0.12700
H1030       H  0.09826234  0.76375959  0.28160553     0.12700
H1031       H  0.07853918  0.77185175  0.24172122     0.12700
H1032       H  0.08482098  0.61844788  0.27683978     0.25900
H1033       H  0.06160391  0.62728049  0.24057748     0.25900
N1034       N  0.34424033  0.62299338  0.27733763    -0.36900
N1035       N  0.34268893  0.55811231  0.24637701    -0.57400
N1036       N  0.35702339  0.61285871  0.21229256    -0.36800
N1037       N  0.35896619  0.67689016  0.24333847    -0.57400
C1038       C  0.32964176  0.59382396  0.28918135     0.26700
C1039       C  0.33323287  0.65735359  0.28629342     0.26700
C1040       C  0.35738262  0.57933890  0.20076990     0.26700
C1041       C  0.36572438  0.64304772  0.19931107     0.26700
C1042       C  0.33916134  0.53733060  0.26448914     0.35400
C1043       C  0.34314152  0.53199200  0.23018884     0.35400
C1044       C  0.36350225  0.70066733  0.26020319     0.35400
C1045       C  0.37523829  0.69523847  0.22688509     0.35400
C1046       C  0.30983044  0.60962436  0.30613664    -0.22100
C1047       C  0.31151165  0.64972666  0.30410275    -0.22100
C1048       C  0.36583810  0.58868357  0.17996049    -0.22100
C1049       C  0.37001837  0.62877715  0.17894183    -0.22100
C1050       C  0.33685950  0.49772196  0.25971925    -0.23200
C1051       C  0.33818493  0.49449377  0.23813842    -0.23200
C1052       C  0.38347237  0.73402303  0.25465841    -0.23200
C1053       C  0.39091728  0.73064091  0.23351769    -0.23200
C1054       C  0.33342237  0.55330517  0.28504889    -0.18500
C1055       C  0.34456296  0.69516044  0.27949447    -0.18500
C1056       C  0.37352680  0.68234739  0.20562691    -0.18500
C1057       C  0.35190632  0.54050275  0.20860482    -0.18500
H1058       H  0.29490840  0.59389199  0.31843176     0.14400
H1059       H  0.29869047  0.67079693  0.31473218     0.14400
H1060       H  0.36935738  0.56876827  0.16682279     0.14400
H1061       H  0.37755465  0.64518491  0.16495213     0.14400
H1062       H  0.33350670  0.97351259  0.27058196     0.12700
H1063       H  0.33708035  0.96730054  0.22937925     0.12700
H1064       H  0.39052759  0.75880362  0.26461711     0.12700
H1065       H  0.40539985  0.75232416  0.22401622     0.12700
H1066       H  0.36359534  0.61918487  0.26502936     0.25900
H1067       H  0.35185910  0.61525215  0.22830228     0.25900
O1068       O  0.40649003  0.84628010  0.10298435    -0.80400
O1069       O  0.05840088  0.85382962  0.15262807    -0.80400
O1070       O  0.53376164  0.80927212  0.10045773    -0.80400
O1071       O  0.44586324  0.83784439  0.17346898    -0.80400
O1072       O  0.07579201  0.85354795  0.10943400    -0.80500
O1073       O  0.42377461  0.82655268  0.14147578    -0.80400
O1074       O  0.00802787  0.81569562  0.15101275    -0.80400
O1075       O  0.45555401  0.80676925  0.10056257    -0.80400
C1076       C  0.42070452  0.81422324  0.09675770     1.09300
C1077       C  0.04121558  0.82237727  0.15827197     1.09200
C1078       C  0.06825411  0.82071026  0.10099333     1.09300
C1079       C  0.42623937  0.81680403  0.16102516     1.09200
O1080       O  0.38416673  0.89709560  0.13649849    -0.80400
O1081       O  0.03817415  0.92785170  0.10405874    -0.80500
O1082       O  0.45211823  0.88314365  0.07885448    -0.80400
O1083       O  0.00543325  0.89357220  0.16951733    -0.80400
O1084       O  0.02267024  0.93290326  0.14450492    -0.80400
O1085       O  0.43419975  0.92293146  0.10445744    -0.80400
O1086       O  0.43768554  0.90885589  0.15370485    -0.80400
O1087       O  0.53231981  0.88365672  0.07902332    -0.80400
Co1088     Co  0.43310429  0.87850452  0.12482010     1.51500
Co1089     Co  0.04520247  0.89114592  0.12751558     1.51700
Co1090     Co  0.49295938  0.84653663  0.09152960     1.51600
Co1091     Co  0.47247945  0.86006355  0.15006722     1.51500
O1092       O  0.49105166  0.87087082  0.12074003    -1.42300
C1093       C  0.40116527  0.91421504  0.15185065     1.09200
C1094       C  0.04557533  0.91616219  0.08573078     1.09300
C1095       C  0.43384822  0.91381389  0.08485023     1.09300
C1096       C  0.01612109  0.92726172  0.16359323     1.09200
C1097       C  0.39311859  0.48223894  0.19927639    -0.02100
C1098       C  0.36118379  0.50625978  0.19423743     0.07600
C1099       C  0.33811566  0.49624280  0.17636683    -0.02200
C1100       C  0.34913528  0.96499660  0.16269485    -0.02200
C1101       C  0.38237045  0.94210459  0.16737985     0.07700
C1102       C  0.40116666  0.94883203  0.18714721    -0.02400
Br1103     Br  0.43536073  0.91067553  0.19969291    -0.01000
Br1104     Br  0.42721153  0.49506471  0.22281103    -0.01000
Br1105     Br  0.31746908  0.95300587  0.13835609    -0.01000
Br1106     Br  0.29136018  0.52529820  0.17066028    -0.01000
C1107       C  0.35825109  0.74524622  0.18676919    -0.02100
C1108       C  0.38296502  0.71248340  0.18948144     0.07600
C1109       C  0.41948240  0.71254577  0.18003089    -0.02200
C1110       C  0.43086877  0.74474337  0.16792314    -0.02200
C1111       C  0.40920107  0.77980081  0.16841840     0.07700
C1112       C  0.37211825  0.77956766  0.17716916    -0.02400
Br1113     Br  0.34083694  0.82638521  0.17622343    -0.01000
Br1114     Br  0.30662145  0.74403737  0.19775985    -0.01000
Br1115     Br  0.47433541  0.73860515  0.14963920    -0.01000
Br1116     Br  0.45628180  0.67131441  0.18579172    -0.01000
C1117       C  0.05853469  0.96066073  0.18956228    -0.02100
C1118       C  0.02342516  0.95986048  0.17827686     0.07600
C1119       C  0.00038213  0.99414698  0.17735711    -0.02200
C1120       C  0.00854462  0.52583640  0.19089683    -0.02200
C1121       C  0.04329606  0.52607799  0.20263982     0.07700
C1122       C  0.06970577  0.99496846  0.20012294    -0.02400
Br1123     Br  0.12275329  0.00190597  0.20842983    -0.01000
Br1124     Br  0.09300309  0.91617070  0.18900741    -0.01000
Br1125     Br  0.97255136  0.56879281  0.19284321    -0.01000
Br1126     Br  0.46071859  0.50011284  0.15598878    -0.01000
C1127       C  0.03399645  0.79059090  0.19388765    -0.02100
C1128       C  0.05605291  0.79536034  0.17536878     0.07600
C1129       C  0.08714602  0.76924544  0.17226034    -0.02200
C1130       C  0.09561774  0.73958506  0.18738792    -0.02200
C1131       C  0.06941778  0.73162926  0.20387157     0.07700
C1132       C  0.03744625  0.75663797  0.20629750    -0.02400
Br1133     Br  0.99768348  0.74453418  0.22646579    -0.01000
Br1134     Br  0.00577663  0.83353920  0.20558428    -0.01000
Br1135     Br  0.14295507  0.71001596  0.18551930    -0.01000
Br1136     Br  0.11716798  0.77275612  0.14712722    -0.01000
C1137       C  0.04020378  0.47453561  0.80394764    -0.02100
C1138       C  0.08025116  0.96946825  0.80290321     0.07600
C1139       C  0.10456836  0.98692977  0.81816951    -0.02200
C1140       C  0.08866028  0.51113266  0.83388128    -0.02200
C1141       C  0.04821165  0.51530570  0.83526166     0.07700
C1142       C  0.02433042  0.49402089  0.82120906    -0.02400
Br1143     Br  0.47045190  0.48756373  0.82612117    -0.01000
Br1144     Br  0.50707469  0.95376768  0.78185108    -0.01000
Br1145     Br  0.12216325  0.53609003  0.85432060    -0.01000
Br1146     Br  0.15948216  0.97780173  0.81734044    -0.01000
C1147       C  0.09497379  0.75324705  0.83871534    -0.02100
C1148       C  0.07634495  0.71894160  0.83195952     0.07600
C1149       C  0.08048947  0.70701470  0.81066964    -0.02200
C1150       C  0.09305246  0.73411562  0.79539301    -0.02200
C1151       C  0.10989671  0.76996169  0.80185280     0.07700
C1152       C  0.11408457  0.77715022  0.82391511    -0.02400
Br1153     Br  0.14451241  0.82070732  0.83394876    -0.01000
Br1154     Br  0.09569937  0.76627077  0.86836849    -0.01000
Br1155     Br  0.58056146  0.72383330  0.76604895    -0.01000
Br1156     Br  0.56691667  0.65448105  0.80184463    -0.01000
C1157       C  0.41742135  0.55975502  0.80309591    -0.02100
C1158       C  0.40787484  0.56341788  0.82479309     0.07600
C1159       C  0.37748749  0.03961929  0.83232260    -0.02200
C1160       C  0.36246579  0.00870678  0.81967574    -0.02200
C1161       C  0.37870776  0.99994311  0.79979895     0.07700
C1162       C  0.40543691  0.52680676  0.79131104    -0.02400
Br1163     Br  0.42961789  0.51695636  0.76446315    -0.01000
Br1164     Br  0.44684772  0.60000580  0.78904085    -0.01000
Br1165     Br  0.31963944  0.97803664  0.82953902    -0.01000
Br1166     Br  0.35480366  0.04954153  0.85933903    -0.01000
C1167       C  0.45034286  0.74261232  0.81322178    -0.02100
C1168       C  0.42994201  0.72069671  0.82854625     0.07600
C1169       C  0.39333909  0.73511938  0.83487973    -0.02200
C1170       C  0.37853736  0.77067616  0.82637225    -0.02200
C1171       C  0.40057618  0.79299529  0.81217146     0.07700
C1172       C  0.43755796  0.77987420  0.80682193    -0.02400
Br1173     Br  0.46922244  0.81194684  0.78869946    -0.01000
Br1174     Br  0.49124165  0.72024794  0.79710889    -0.01000
Br1175     Br  0.32713541  0.78808843  0.83293081    -0.01000
Br1176     Br  0.36070017  0.70378409  0.85264585    -0.01000
C1177       C  0.16617442  0.79394274  0.07746662    -0.02100
C1178       C  0.15400264  0.77583349  0.05839093     0.07600
C1179       C  0.11902871  0.75515066  0.06021336    -0.02200
C1180       C  0.09073652  0.76793880  0.07472600    -0.02200
C1181       C  0.09927446  0.79891004  0.08916363     0.07700
C1182       C  0.13867969  0.80946514  0.09137782    -0.02400
Br1183     Br  0.15778430  0.84194046  0.11415310    -0.01000
Br1184     Br  0.21469903  0.77886886  0.09043514    -0.01000
Br1185     Br  0.04180340  0.74132582  0.07442488    -0.01000
Br1186     Br  0.11500047  0.70339390  0.04798069    -0.01000
C1187       C  0.33946163  0.76111865  0.07043119    -0.02100
C1188       C  0.34632956  0.77329758  0.04942367     0.07600
C1189       C  0.38243956  0.78977309  0.04438955    -0.02200
C1190       C  0.41045247  0.79355269  0.06022917    -0.02200
C1191       C  0.39948871  0.79075770  0.08144482     0.07700
C1192       C  0.36434745  0.77340687  0.08670694    -0.02400
Br1193     Br  0.35075834  0.76654282  0.11593914    -0.01000
Br1194     Br  0.29785541  0.72599221  0.07674129    -0.01000
Br1195     Br  0.46354436  0.80224265  0.05284813    -0.01000
Br1196     Br  0.39351293  0.81109218  0.01685267    -0.01000
C1197       C  0.10770883  0.67817464  0.92686961    -0.02100
C1198       C  0.07593194  0.70288867  0.92268994     0.07600
C1199       C  0.07771392  0.74247629  0.92897673    -0.02200
C1200       C  0.11017289  0.75647720  0.94034050    -0.02200
C1201       C  0.13943905  0.73020480  0.94713957     0.07700
C1202       C  0.13821892  0.69094440  0.94001805    -0.02400
Br1203     Br  0.17792999  0.65412178  0.94843470    -0.01000
Br1204     Br  0.11114733  0.62821133  0.91286194    -0.01000
Br1205     Br  0.11497722  0.81165900  0.94631925    -0.01000
Br1206     Br  0.03578824  0.77748771  0.92187980    -0.01000
C1207       C  0.36239620  0.69928804  0.94282815    -0.02100
C1208       C  0.34254090  0.73524888  0.94175928     0.07600
C1209       C  0.35584294  0.76422839  0.92749488    -0.02200
C1210       C  0.38805289  0.75649267  0.91431104    -0.02200
C1211       C  0.40995925  0.72186669  0.91729105     0.07700
C1212       C  0.39827475  0.69527915  0.93316711    -0.02400
Br1213     Br  0.43305731  0.65533250  0.94391066    -0.01000
Br1214     Br  0.34242289  0.65617078  0.95921661    -0.01000
Br1215     Br  0.40143452  0.79276344  0.89229195    -0.01000
Br1216     Br  0.33028834  0.81438680  0.92611594    -0.01000
C1217       C  0.09678935  0.96778074  0.04125853    -0.02100
C1218       C  0.13568000  0.96022074  0.04740825     0.07600
C1219       C  0.14195442  0.95789282  0.06951020    -0.02200
C1220       C  0.11214767  0.94404669  0.08246723    -0.02200
C1221       C  0.07514711  0.93720826  0.07358232     0.07700
C1222       C  0.06663013  0.95347593  0.05372824    -0.02400
Br1223     Br  0.01393143  0.96207582  0.04538711    -0.01000
Br1224     Br  0.08460757  0.00665715  0.01992016    -0.01000
Br1225     Br  0.12181378  0.93782139  0.11239884    -0.01000
Br1226     Br  0.18319864  0.98720909  0.08273621    -0.01000
C1227       C  0.34712816  0.97268420  0.06267242    -0.02100
C1228       C  0.34177367  0.95491458  0.04269906     0.07600
C1229       C  0.37078675  0.92973380  0.03515012    -0.02200
C1230       C  0.40349023  0.92067067  0.04779957    -0.02200
C1231       C  0.40652288  0.93396850  0.06915870     0.07700
C1232       C  0.37929544  0.96268852  0.07572847    -0.02400
Br1233     Br  0.38722355  0.99188072  0.10152981    -0.01000
Br1234     Br  0.31075691  0.01193798  0.07183012    -0.01000
Br1235     Br  0.44549272  0.89421341  0.03405909    -0.01000
Br1236     Br  0.36538241  0.90720553  0.00716811    -0.01000
C1237       C  0.10872849  0.54033209  0.95386331    -0.02100
C1238       C  0.12478996  0.50555179  0.94586602     0.07600
C1239       C  0.10750560  0.98732338  0.92827475    -0.02200
C1240       C  0.07543672  0.50493019  0.91789275    -0.02200
C1241       C  0.05965570  0.54096918  0.92541581     0.07700
C1242       C  0.07543651  0.55692334  0.94452420    -0.02400
Br1243     Br  0.05263230  0.60112798  0.95921822    -0.01000
Br1244     Br  0.13384083  0.56647981  0.97742975    -0.01000
Br1245     Br  0.05286240  0.97724502  0.89419387    -0.01000
Br1246     Br  0.12812524  0.93793602  0.91861280    -0.01000
C1247       C  0.32612410  0.55424580  0.92980167    -0.02100
C1248       C  0.32643492  0.51637788  0.93865751     0.07600
C1249       C  0.35501018  0.98927019  0.93255752    -0.02200
C1250       C  0.38485112  0.50067924  0.91889983    -0.02200
C1251       C  0.38689211  0.53984295  0.91164993     0.07700
C1252       C  0.35618179  0.56600890  0.91642416    -0.02400
Br1253     Br  0.35352258  0.61765794  0.90387256    -0.01000
Br1254     Br  0.28413342  0.58992886  0.93586455    -0.01000
Br1255     Br  0.42324420  0.96241300  0.91103645    -0.01000
Br1256     Br  0.35319378  0.93627983  0.94321194    -0.01000
C1257       C  0.13696709  0.00672734  0.68755111    -0.02100
C1258       C  0.16115344  0.98761312  0.70242614     0.07600
C1259       C  0.19887779  0.50134565  0.70580980    -0.02200
C1260       C  0.21256616  0.53349960  0.69420116    -0.02200
C1261       C  0.18955224  0.55046975  0.67774293     0.07700
C1262       C  0.15124026  0.53775182  0.67510455    -0.02400
Br1263     Br  0.11677783  0.06674253  0.65676081    -0.01000
Br1264     Br  0.08361658  0.99194435  0.68521754    -0.01000
Br1265     Br  0.26174183  0.55525982  0.70262584    -0.01000
Br1266     Br  0.23118309  0.47673611  0.72726010    -0.01000
C1267       C  0.20792174  0.75469510  0.67063001    -0.02100
C1268       C  0.18286237  0.72200591  0.66883981     0.07600
C1269       C  0.14766404  0.72245745  0.67986908    -0.02200
C1270       C  0.13908794  0.75369956  0.69359800    -0.02200
C1271       C  0.16630544  0.78358789  0.69726827     0.07700
C1272       C  0.20032062  0.78455630  0.68532271    -0.02400
Br1273     Br  0.23728392  0.82614617  0.68945273    -0.01000
Br1274     Br  0.25234923  0.76010066  0.65256411    -0.01000
Br1275     Br  0.08975455  0.75577135  0.70743835    -0.01000
Br1276     Br  0.11188950  0.67952312  0.67756949    -0.01000
C1277       C  0.35980255  0.53189986  0.67692724    -0.02100
C1278       C  0.32724760  0.53081620  0.66321876     0.07600
C1279       C  0.30317490  0.49722863  0.66370138    -0.02200
C1280       C  0.30826292  0.46847538  0.67956954    -0.02200
C1281       C  0.33952890  0.97094597  0.69402925     0.07700
C1282       C  0.36681423  0.00106262  0.69135697    -0.02400
Br1283     Br  0.41409553  0.00011039  0.70769016    -0.01000
Br1284     Br  0.39296833  0.57714339  0.67825255    -0.01000
Br1285     Br  0.27078133  0.42711769  0.68198606    -0.01000
Br1286     Br  0.26201527  0.49062613  0.64307229    -0.01000
C1287       C  0.30227476  0.71318697  0.69964064    -0.02100
C1288       C  0.32875342  0.70164110  0.68403556     0.07600
C1289       C  0.36477803  0.72007207  0.68267699    -0.02200
C1290       C  0.37329720  0.75190238  0.69592250    -0.02200
C1291       C  0.34449189  0.76731276  0.70916345     0.07700
C1292       C  0.30925587  0.74722352  0.71137368    -0.02400
Br1293     Br  0.27106301  0.76537124  0.73118528    -0.01000
Br1294     Br  0.25708222  0.68239950  0.70571418    -0.01000
Br1295     Br  0.42480486  0.77286338  0.69674476    -0.01000
Br1296     Br  0.40316524  0.69978736  0.66362968    -0.01000
C1297       C  0.15144689  0.94053379  0.30040214    -0.02100
C1298       C  0.15930913  0.94357556  0.32235180     0.07600
C1299       C  0.14829970  0.97887346  0.33260750    -0.02200
C1300       C  0.12889188  0.50885221  0.32121627    -0.02200
C1301       C  0.12803890  0.50837578  0.29885019     0.07700
C1302       C  0.14090831  0.97393760  0.28859714    -0.02400
Br1303     Br  0.14864236  0.97243838  0.25853855    -0.01000
Br1304     Br  0.15233014  0.89061527  0.28608230    -0.01000
Br1305     Br  0.10200038  0.54941782  0.33655579    -0.01000
Br1306     Br  0.16252340  0.48963269  0.36151303    -0.01000
C1307       C  0.17656313  0.77034320  0.31364892    -0.02100
C1308       C  0.15873097  0.77838201  0.33326749     0.06000
C1309       C  0.12924350  0.75284675  0.34007761    -0.02200
C1310       C  0.11718956  0.72136128  0.32697063    -0.02200
C1311       C  0.13634572  0.71349813  0.30783236     0.07700
C1312       C  0.16762558  0.73666634  0.30203364    -0.02400
Br1313     Br  0.19735629  0.72266919  0.27741852    -0.01000
Br1314     Br  0.20858178  0.80792107  0.30013853    -0.01000
Br1315     Br  0.07428491  0.68909793  0.33493446    -0.01000
Br1316     Br  0.10574715  0.75974066  0.36724530    -0.01000
C1317       C  0.34201563  0.98008696  0.33068766    -0.02100
C1318       C  0.30637514  0.96047449  0.32832135     0.07600
C1319       C  0.28121991  0.97267446  0.31181506    -0.02200
C1320       C  0.28705530  0.50767043  0.30107534    -0.02200
C1321       C  0.32322232  0.52538210  0.30216833     0.07700
C1322       C  0.35099977  0.51155695  0.31694166    -0.02400
Br1323     Br  0.40125082  0.53526196  0.31784251    -0.01000
Br1324     Br  0.37940588  0.96270375  0.35143570    -0.01000
Br1325     Br  0.24692388  0.52857062  0.28270918    -0.01000
Br1326     Br  0.24950264  0.93581507  0.29729767    -0.01000
C1327       C  0.33808223  0.76488280  0.32640908    -0.02100
C1328       C  0.31315206  0.79495944  0.31832461     0.07600
C1329       C  0.30583940  0.79547105  0.29633386    -0.02200
C1330       C  0.31287077  0.76167820  0.28419288    -0.02200
C1331       C  0.33537728  0.73056716  0.29261135     0.07700
C1332       C  0.35085003  0.73438340  0.31314535    -0.02400
Br1333     Br  0.39069446  0.69847921  0.32276985    -0.01000
Br1334     Br  0.35755716  0.76486683  0.35517810    -0.01000
Br1335     Br  0.28951737  0.75792138  0.25644467    -0.01000
Br1336     Br  0.29241943  0.84341060  0.28185291    -0.01000
C1337       C  0.11390389  0.69936104  0.56890042    -0.02100
C1338       C  0.11727481  0.73222546  0.55572126     0.07600
C1339       C  0.15115332  0.75537831  0.55770305    -0.02200
C1340       C  0.18231125  0.74223959  0.57073728    -0.02200
C1341       C  0.17658184  0.71142297  0.58522712     0.07700
C1342       C  0.13966292  0.69421046  0.58573528    -0.02400
Br1343     Br  0.11775713  0.67489808  0.61137503    -0.01000
Br1344     Br  0.07571419  0.65947393  0.56374801    -0.01000
Br1345     Br  0.23218109  0.76638484  0.56906258    -0.01000
Br1346     Br  0.15553723  0.80377447  0.54221951    -0.01000
C1347       C  0.39851014  0.75803041  0.57033827    -0.02100
C1348       C  0.41193038  0.73937856  0.55188971     0.07600
C1349       C  0.39001226  0.70835049  0.54336393    -0.02200
C1350       C  0.35542050  0.69692782  0.55283610    -0.02200
C1351       C  0.34692959  0.70870315  0.57366238     0.07700
C1352       C  0.36733768  0.74169870  0.58178656    -0.02400
Br1353     Br  0.35070206  0.76754525  0.60725948    -0.01000
Br1354     Br  0.42176122  0.80656691  0.57927442    -0.01000
Br1355     Br  0.31641107  0.67393427  0.53503104    -0.01000
Br1356     Br  0.40817148  0.67920026  0.51927874    -0.01000
C1357       C  0.13933276  0.73423411  0.43744040    -0.02100
C1358       C  0.10887698  0.75692558  0.44603270     0.07600
C1359       C  0.10548909  0.79627545  0.43997691    -0.02200
C1360       C  0.12973250  0.81132508  0.42464049    -0.02200
C1361       C  0.16469231  0.79263767  0.41963654     0.07700
C1362       C  0.16845959  0.75267132  0.42519110    -0.02400
Br1363     Br  0.21166365  0.72308848  0.41499568    -0.01000
Br1364     Br  0.14057011  0.67855444  0.44215713    -0.01000
Br1365     Br  0.10325546  0.84051082  0.40352897    -0.01000
Br1366     Br  0.06692305  0.83058612  0.45191715    -0.01000
C1367       C  0.41610322  0.79937369  0.43093988    -0.02100
C1368       C  0.41021745  0.77295286  0.44776651     0.07600
C1369       C  0.37208853  0.75926538  0.45119680    -0.02200
C1370       C  0.34036050  0.77613577  0.44017442    -0.02200
C1371       C  0.34662669  0.80118885  0.42291225     0.07700
C1372       C  0.38532614  0.80949661  0.41724224    -0.02400
Br1373     Br  0.39759627  0.83700971  0.39157032    -0.01000
Br1374     Br  0.46444547  0.82689711  0.42812024    -0.01000
Br1375     Br  0.28845988  0.76549958  0.44891980    -0.01000
Br1376     Br  0.36279840  0.71776775  0.47114580    -0.01000
C1377       C  0.15786332  0.59061766  0.55727884    -0.02100
C1378       C  0.15884021  0.57527338  0.57818220     0.07600
C1379       C  0.13547308  0.54267420  0.58274155    -0.02200
C1380       C  0.10919034  0.52812702  0.56737508    -0.02200
C1381       C  0.10624222  0.54591925  0.54721024     0.07700
C1382       C  0.13063965  0.57727146  0.54233542    -0.02400
Br1383     Br  0.12513370  0.60386931  0.51536502    -0.01000
Br1384     Br  0.19531533  0.62722599  0.54732887    -0.01000
Br1385     Br  0.07715045  0.48383845  0.57387922    -0.01000
Br1386     Br  0.14180033  0.51598379  0.60938805    -0.01000
C1387       C  0.41173789  0.52236819  0.56701364    -0.02100
C1388       C  0.40665624  0.53693333  0.54616336     0.07600
C1389       C  0.37264048  0.55780116  0.54085382    -0.02200
C1390       C  0.34458566  0.56360859  0.55618546    -0.02200
C1391       C  0.35385387  0.55686895  0.57758223     0.07700
C1392       C  0.38685019  0.53506100  0.58305209    -0.02400
Br1393     Br  0.39688853  0.02184079  0.61223724    -0.01000
Br1394     Br  0.45233918  0.98533337  0.57364600    -0.01000
Br1395     Br  0.29337847  0.57976864  0.54757694    -0.01000
Br1396     Br  0.36518426  0.58248918  0.51355542    -0.01000
C1397       C  0.13751256  0.00072766  0.43734460    -0.02100
C1398       C  0.10020502  0.98544144  0.44034635     0.07600
C1399       C  0.08741863  0.95506622  0.42677740    -0.02200
C1400       C  0.11108141  0.94183259  0.41047015    -0.02200
C1401       C  0.15087673  0.94874983  0.41147004     0.07700
C1402       C  0.16376179  0.98089979  0.42407608    -0.02400
Br1403     Br  0.21591439  0.00054144  0.42276968    -0.01000
Br1404     Br  0.15211868  0.54936553  0.45081564    -0.01000
Br1405     Br  0.08719827  0.92757061  0.38392423    -0.01000
Br1406     Br  0.03902026  0.92863692  0.43069394    -0.01000
C1407       C  0.40793306  0.94636568  0.44086542    -0.02100
C1408       C  0.41082973  0.98725079  0.43923466     0.07600
C1409       C  0.38498601  0.00782544  0.42579246    -0.02200
C1410       C  0.35741331  0.98704970  0.41347424    -0.02200
C1411       C  0.35367736  0.94609805  0.41595973     0.07700
C1412       C  0.37670819  0.92724667  0.43144081    -0.02400
Br1413     Br  0.35754099  0.88287506  0.44635700    -0.01000
Br1414     Br  0.44358717  0.91693682  0.45862454    -0.01000
Br1415     Br  0.32269695  0.01487841  0.39478254    -0.01000
Br1416     Br  0.38626343  0.06416808  0.42520583    -0.01000
N1417       N  0.94680302  0.52301724  0.49230594    -0.36900
N1418       N  0.50646645  0.03129064  0.52498820    -0.57400
N1419       N  0.56489503  0.02125792  0.49384130    -0.36800
N1420       N  0.50515031  0.51379876  0.46161160    -0.57400
C1421       C  0.92802295  0.01515778  0.51039720     0.26700
C1422       C  0.92622920  0.50683129  0.47631194     0.26700
C1423       C  0.58537576  0.01704168  0.51208480     0.26700
C1424       C  0.58430177  0.50257103  0.47831952     0.26700
C1425       C  0.97489567  0.04488850  0.53486072     0.35400
C1426       C  0.53707096  0.04510078  0.53593750     0.35400
C1427       C  0.97431062  0.51719829  0.44851343     0.35400
C1428       C  0.53682729  0.51599152  0.44953954     0.35400
C1429       C  0.89503008  0.99381354  0.50596590    -0.22100
C1430       C  0.89346884  0.48919787  0.48438474    -0.22100
C1431       C  0.61870998  0.99596404  0.50816835    -0.22100
C1432       C  0.61768756  0.48610342  0.48693532    -0.22100
C1433       C  0.98539438  0.06798971  0.55198644    -0.23200
C1434       C  0.52495598  0.06765034  0.55282965    -0.23200
C1435       C  0.98632025  0.52269425  0.42793348    -0.23200
C1436       C  0.52604563  0.52281373  0.42862541    -0.23200
C1437       C  0.93735938  0.03182545  0.53016021    -0.18500
C1438       C  0.93661198  0.50759099  0.45468833    -0.18500
C1439       C  0.57358823  0.50272387  0.45647135    -0.18500
C1440       C  0.57547161  0.03461930  0.53162563    -0.18500
H1441       H  0.87348790  0.98413496  0.51704658     0.14400
H1442       H  0.87067004  0.47456454  0.47571682     0.14400
H1443       H  0.64127932  0.98848198  0.51943249     0.14400
H1444       H  0.63960906  0.46961193  0.47870898     0.14400
H1445       H  0.96657166  0.08211210  0.56322701     0.12700
H1446       H  0.54264442  0.08123049  0.56489985     0.12700
H1447       H  0.96845104  0.52423507  0.41382382     0.12700
H1448       H  0.54476016  0.52412684  0.41505573     0.12700
H1449       H  0.97004598  0.54201773  0.49082645     0.25900
H1450       H  0.54121308  0.03975068  0.49169942     0.25900
N1451       N  0.57229894  0.24330091  0.50084335    -0.36900
N1452       N  0.01570339  0.25112432  0.53428447    -0.57400
N1453       N  0.95644803  0.25796062  0.50151301    -0.36800
N1454       N  0.01108561  0.24820832  0.46856036    -0.57400
C1455       C  0.59602777  0.23808349  0.51782950     0.26700
C1456       C  0.59386375  0.23915415  0.48320660     0.26700
C1457       C  0.93807167  0.26918069  0.51924706     0.26700
C1458       C  0.93654251  0.27335263  0.48492524     0.26700
C1459       C  0.54719065  0.24640372  0.54685166     0.35400
C1460       C  0.98423476  0.24829548  0.54671668     0.35400
C1461       C  0.54106484  0.23982669  0.45583324     0.35400
C1462       C  0.97857493  0.24826451  0.45649399     0.35400
C1463       C  0.63285334  0.22949927  0.51067182    -0.22100
C1464       C  0.63176525  0.23167355  0.48904805    -0.22100
C1465       C  0.90656343  0.29233548  0.51411131    -0.22100
C1466       C  0.90619224  0.29598748  0.49244549    -0.22100
C1467       C  0.53527253  0.24327207  0.56773963    -0.23200
C1468       C  0.99555038  0.24244294  0.56747838    -0.23200
C1469       C  0.52749351  0.23356978  0.43542656    -0.23200
C1470       C  0.98780946  0.23768964  0.43596865    -0.23200
C1471       C  0.58591472  0.24077846  0.53962630    -0.18500
C1472       C  0.58066927  0.24201334  0.46192831    -0.18500
C1473       C  0.94243116  0.26361197  0.46335352    -0.18500
C1474       C  0.94580009  0.25397633  0.53953557    -0.18500
H1475       H  0.65836969  0.22261784  0.51993515     0.14400
H1476       H  0.65627627  0.22719344  0.47893438     0.14400
H1477       H  0.88567216  0.30458050  0.52488188     0.14400
H1478       H  0.88476416  0.31188700  0.48326663     0.14400
H1479       H  0.55311756  0.23996042  0.58175551     0.12700
H1480       H  0.97730574  0.23931939  0.58113028     0.12700
H1481       H  0.54452738  0.22737486  0.42156882     0.12700
H1482       H  0.96841054  0.23587040  0.42249225     0.12700
H1483       H  0.54369202  0.25181831  0.50115099     0.25900
H1484       H  0.97724432  0.23588531  0.50089483     0.25900
O1485       O  0.81099074  0.31500679  0.39195277    -0.80400
O1486       O  0.65241097  0.33349408  0.35804677    -0.80400
O1487       O  0.71005276  0.34567760  0.41783714    -0.80400
O1488       O  0.77415792  0.35293593  0.32744126    -0.80400
O1489       O  0.70194482  0.31043230  0.38924633    -0.80500
O1490       O  0.79371934  0.31615032  0.35229795    -0.80400
O1491       O  0.70976341  0.31974372  0.34578647    -0.80400
O1492       O  0.79306333  0.34728221  0.42026871    -0.80400
C1493       C  0.81400706  0.32114534  0.41139434     1.09300
C1494       C  0.67350333  0.31198382  0.34632466     1.09200
C1495       C  0.69532759  0.31592702  0.40859711     1.09300
C1496       C  0.79331106  0.32307231  0.33304402     1.09200
O1497       O  0.81641312  0.40093215  0.34899395    -0.80400
O1498       O  0.66696681  0.38856113  0.39277705    -0.80500
O1499       O  0.78933394  0.42827848  0.40693436    -0.80400
O1500       O  0.70265087  0.38812942  0.32346973    -0.80400
O1501       O  0.68293227  0.40820058  0.35380968    -0.80400
O1502       O  0.83591549  0.39519494  0.39195169    -0.80400
O1503       O  0.75803903  0.42653708  0.34674636    -0.80400
O1504       O  0.71360281  0.42669197  0.40245751    -0.80400
Co1505     Co  0.81041882  0.35765688  0.37144880     1.51500
Co1506     Co  0.69749968  0.35793723  0.37111415     1.51700
Co1507     Co  0.75132191  0.38560255  0.40958428     1.51600
Co1508     Co  0.73386027  0.37473745  0.34778832     1.51500
O1509       O  0.75425172  0.37067995  0.37803388    -1.42300
C1510       C  0.79353094  0.42820300  0.34261547     1.09200
C1511       C  0.67817786  0.42040299  0.40122518     1.09300
C1512       C  0.82465401  0.42268995  0.40386671     1.09300
C1513       C  0.68142304  0.41140846  0.33357684     1.09200
O1514       O  0.82241679  0.18724866  0.60710135    -0.80400
O1515       O  0.67373255  0.16422219  0.64690339    -0.80400
O1516       O  0.72485102  0.16219333  0.58419988    -0.80400
O1517       O  0.80464743  0.14034595  0.67340579    -0.80400
O1518       O  0.71580731  0.19063419  0.61480153    -0.80500
O1519       O  0.81703958  0.18100293  0.64880040    -0.80400
O1520       O  0.73263318  0.17830308  0.65826109    -0.80400
O1521       O  0.80413518  0.15365792  0.57953450    -0.80400
C1522       C  0.82182118  0.18298177  0.58734868     1.09300
C1523       C  0.69628425  0.18625315  0.65762139     1.09200
C1524       C  0.70940189  0.18917293  0.59511568     1.09300
C1525       C  0.81776449  0.17255215  0.66816386     1.09200
O1526       O  0.83630105  0.09396904  0.64557886    -0.80400
O1527       O  0.67775805  0.11844905  0.60697326    -0.80500
O1528       O  0.79614163  0.07239061  0.59416176    -0.80400
O1529       O  0.72511052  0.10837270  0.67379825    -0.80400
O1530       O  0.70218868  0.08682787  0.64486702    -0.80400
O1531       O  0.84672547  0.10665022  0.60311833    -0.80400
O1532       O  0.77788284  0.07297051  0.65114200    -0.80400
O1533       O  0.72069338  0.07889400  0.59449789    -0.80400
Co1534     Co  0.82609910  0.14135922  0.62608954     1.51500
Co1535     Co  0.71318596  0.13990260  0.63020834     1.51700
Co1536     Co  0.76188262  0.11737263  0.59020358     1.51600
Co1537     Co  0.76262420  0.12740983  0.65387300     1.51500
O1538       O  0.76783053  0.12800765  0.62178169    -1.42300
C1539       C  0.81356428  0.06692402  0.65187951     1.09200
C1540       C  0.68657256  0.09096026  0.59437433     1.09300
C1541       C  0.83164207  0.07797587  0.59347119     1.09300
C1542       C  0.70477733  0.08361646  0.66493873     1.09200
N1543       N  0.79079021  0.48340931  0.99199730    -0.36900
N1544       N  0.72905917  0.49183568  0.96092733    -0.57400
N1545       N  0.67561253  0.47493364  0.99386399    -0.36800
N1546       N  0.73713355  0.46590123  0.02529094    -0.57400
C1547       C  0.80936826  0.50228547  0.97623422     0.26700
C1548       C  0.81365137  0.48528587  0.00954393     0.26700
C1549       C  0.65395809  0.46930479  0.97622292     0.26700
C1550       C  0.65839229  0.45492097  0.00952916     0.26700
C1551       C  0.75864625  0.49903015  0.94789171     0.35400
C1552       C  0.69646984  0.49597220  0.94925877     0.35400
C1553       C  0.76997320  0.45278660  0.03466197     0.35400
C1554       C  0.70738166  0.45219440  0.03672779     0.35400
C1555       C  0.84409713  0.51671148  0.98399500    -0.22100
C1556       C  0.84677097  0.50601548  0.00496081    -0.22100
C1557       C  0.62368761  0.44441413  0.98040666    -0.22100
C1558       C  0.62729333  0.43408124  0.00136800    -0.22100
C1559       C  0.74470901  0.00578157  0.92752149    -0.23200
C1560       C  0.70514444  0.00532872  0.92859620    -0.23200
C1561       C  0.76113865  0.42916443  0.05173173    -0.23200
C1562       C  0.72143095  0.42823159  0.05280232    -0.23200
C1563       C  0.79719750  0.50487488  0.95469444    -0.18500
C1564       C  0.80742020  0.46473899  0.02874794    -0.18500
C1565       C  0.66802383  0.45842918  0.03121975    -0.18500
C1566       C  0.65931850  0.48858220  0.95688105    -0.18500
H1567       H  0.86567787  0.53271488  0.97532740     0.14400
H1568       H  0.87088386  0.51180394  0.01548987     0.14400
H1569       H  0.60141257  0.43486112  0.96948613     0.14400
H1570       H  0.60804670  0.41503157  0.00990368     0.14400
H1571       H  0.76118736  0.01254189  0.91356190     0.12700
H1572       H  0.68520892  0.01006555  0.91555769     0.12700
H1573       H  0.78113155  0.41431529  0.06230319     0.12700
H1574       H  0.70487966  0.41137364  0.06395495     0.12700
H1575       H  0.76647744  0.46590041  0.99022446     0.25900
H1576       H  0.69730693  0.49572465  0.99581946     0.25900
N1577       N  0.68489703  0.25903395  0.99991675    -0.36900
N1578       N  0.74235805  0.24777999  0.96553067    -0.57400
N1579       N  0.80251033  0.25708347  0.99588095    -0.36800
N1580       N  0.74653032  0.26614092  0.03121560    -0.57400
C1581       C  0.66065499  0.25144414  0.98350871     0.26700
C1582       C  0.66357413  0.26548026  0.01763405     0.26700
C1583       C  0.82371083  0.24357309  0.97966132     0.26700
C1584       C  0.82299750  0.25029067  0.01383165     0.26700
C1585       C  0.70942724  0.24503067  0.95393047     0.35400
C1586       C  0.77240720  0.24626262  0.95190178     0.35400
C1587       C  0.71737006  0.28729640  0.03922820     0.35400
C1588       C  0.77908143  0.28468458  0.03691603     0.35400
C1589       C  0.62308184  0.25391286  0.99081556    -0.22100
C1590       C  0.62492661  0.26426111  0.01185932    -0.22100
C1591       C  0.85861859  0.22924103  0.98769854    -0.22100
C1592       C  0.85667945  0.23055411  0.00926444    -0.22100
C1593       C  0.71874729  0.24197826  0.93267549    -0.23200
C1594       C  0.75841308  0.24262245  0.93141999    -0.23200
C1595       C  0.73144175  0.32053919  0.04919890    -0.23200
C1596       C  0.77105615  0.31803168  0.04846648    -0.23200
C1597       C  0.67106776  0.24316647  0.96204598    -0.18500
C1598       C  0.67876993  0.27483575  0.03829737    -0.18500
C1599       C  0.81553371  0.26891703  0.03312837    -0.18500
C1600       C  0.81208997  0.24381941  0.95799619    -0.18500
H1601       H  0.59665065  0.25003299  0.98186953     0.14400
H1602       H  0.60019253  0.27108890  0.02144131     0.14400
H1603       H  0.88362881  0.21898576  0.97932059     0.14400
H1604       H  0.87959511  0.22220677  0.02013751     0.14400
H1605       H  0.69899887  0.23886926  0.91942198     0.12700
H1606       H  0.77500515  0.23951315  0.91711786     0.12700
H1607       H  0.71490288  0.34317053  0.05691742     0.12700
H1608       H  0.79152349  0.33828717  0.05537842     0.12700
H1609       H  0.71470000  0.25921071  0.99893860     0.25900
H1610       H  0.77830316  0.27517151  0.99459972     0.25900
O1611       O  0.51325749  0.09264469  0.92098987    -0.80400
O1612       O  0.55635120  0.16010126  0.84848365    -0.80400
O1613       O  0.49818176  0.04117825  0.85697168    -0.80400
O1614       O  0.53880573  0.19298174  0.89153926    -0.80400
O1615       O  0.54606782  0.07979494  0.84887694    -0.80500
O1616       O  0.51597455  0.16861810  0.91987698    -0.80400
O1617       O  0.52085942  0.21218865  0.85466470    -0.80400
O1618       O  0.51766857  0.05307588  0.89505253    -0.80400
C1619       C  0.52846233  0.06283513  0.91327539     1.09300
C1620       C  0.55076870  0.19649375  0.84633912     1.09200
C1621       C  0.53087952  0.04622455  0.84855503     1.09300
C1622       C  0.54199135  0.18755244  0.91084501     1.09200
O1623       O  0.93898470  0.17072240  0.89833790    -0.80400
O1624       O  0.96945330  0.09076162  0.83250052    -0.80500
O1625       O  0.94150666  0.03486680  0.88811342    -0.80400
O1626       O  0.94235492  0.18031487  0.85894503    -0.80400
O1627       O  0.97862960  0.16995114  0.83202701    -0.80400
O1628       O  0.93355822  0.08989311  0.90618144    -0.80400
O1629       O  0.96460526  0.22797018  0.89219804    -0.80400
O1630       O  0.92983491  0.09122030  0.85880527    -0.80400
Co1631     Co  0.97779802  0.13029441  0.90739647     1.51500
Co1632     Co  0.01219417  0.12514227  0.84292031     1.51700
Co1633     Co  0.97363331  0.07606312  0.87838235     1.51600
Co1634     Co  0.98929040  0.18383015  0.87701944     1.51500
O1635       O  0.00066333  0.12657692  0.87506864    -1.42300
C1636       C  0.93990465  0.20736449  0.90226327     1.09200
C1637       C  0.93587226  0.08467615  0.83936349     1.09300
C1638       C  0.92237982  0.05502065  0.90127471     1.09300
C1639       C  0.94942563  0.18690432  0.83984706     1.09200
N1640       N  0.65048871  0.38404620  0.72073866    -0.36900
N1641       N  0.63900655  0.31937484  0.75068620    -0.57400
N1642       N  0.61198352  0.37341025  0.78101532    -0.36800
N1643       N  0.62186474  0.43841656  0.75113159    -0.57400
C1644       C  0.65128378  0.35279431  0.70763404     0.26700
C1645       C  0.64700785  0.41655142  0.70856703     0.26700
C1646       C  0.59976608  0.33895867  0.78916625     0.26700
C1647       C  0.59064051  0.40197594  0.78989628     0.26700
C1648       C  0.65862268  0.30107503  0.73526703     0.35400
C1649       C  0.64087587  0.29608757  0.76801238     0.35400
C1650       C  0.63550842  0.46463276  0.73707351     0.35400
C1651       C  0.61347618  0.45877371  0.76878349     0.35400
C1652       C  0.64799074  0.36567519  0.68684558    -0.22100
C1653       C  0.64621123  0.40599035  0.68743694    -0.22100
C1654       C  0.56972965  0.34571198  0.80296794    -0.22100
C1655       C  0.56476016  0.38544976  0.80393777    -0.22100
C1656       C  0.67330549  0.26583851  0.74285373    -0.23200
C1657       C  0.66299930  0.26321524  0.76381281    -0.23200
C1658       C  0.63500515  0.50194733  0.74567085    -0.23200
C1659       C  0.62079317  0.49826705  0.76574727    -0.23200
C1660       C  0.65895594  0.31357844  0.71389439    -0.18500
C1661       C  0.64659511  0.45543755  0.71621303    -0.18500
C1662       C  0.59613624  0.44259398  0.78685667    -0.18500
C1663       C  0.61796622  0.30226977  0.78613369    -0.18500
H1664       H  0.64839236  0.34798030  0.67265673     0.14400
H1665       H  0.64443490  0.42524477  0.67386482     0.14400
H1666       H  0.05401967  0.32439692  0.81211178     0.14400
H1667       H  0.04452229  0.40011273  0.81415042     0.14400
H1668       H  0.68861932  0.24369778  0.73400267     0.12700
H1669       H  0.66875758  0.23872721  0.77426673     0.12700
H1670       H  0.64333876  0.02905380  0.73815164     0.12700
H1671       H  0.61592918  0.02203413  0.77672682     0.12700
H1672       H  0.65685433  0.38355024  0.73684096     0.25900
H1673       H  0.63681513  0.37788248  0.77223901     0.25900
N1674       N  0.84765254  0.37400547  0.72338437    -0.36900
N1675       N  0.86431979  0.32307052  0.75930289    -0.57400
N1676       N  0.86827942  0.39034545  0.78773103    -0.36800
N1677       N  0.85389266  0.44125550  0.75126928    -0.57400
C1678       C  0.85292544  0.33961584  0.71320614     0.26700
C1679       C  0.85006777  0.40298684  0.70882839     0.26700
C1680       C  0.88337165  0.36202587  0.80050124     0.26700
C1681       C  0.87742415  0.42562772  0.79627297     0.26700
C1682       C  0.85762048  0.29525067  0.74454672     0.35400
C1683       C  0.86861026  0.30388492  0.77788199     0.35400
C1684       C  0.84109063  0.45924762  0.73339296     0.35400
C1685       C  0.85106877  0.46774279  0.76715418     0.35400
C1686       C  0.85771663  0.34673447  0.69179119    -0.22100
C1687       C  0.85699549  0.38671418  0.68913347    -0.22100
C1688       C  0.90104172  0.37936586  0.81779317    -0.22100
C1689       C  0.89702388  0.41926778  0.81521863    -0.22100
C1690       C  0.85846232  0.25835839  0.75372179    -0.23200
C1691       C  0.86496977  0.26381465  0.77476794    -0.23200
C1692       C  0.82990485  0.49722190  0.73806564    -0.23200
C1693       C  0.83574871  0.50247525  0.75937717    -0.23200
C1694       C  0.85218506  0.30203672  0.72268214    -0.18500
C1695       C  0.84322824  0.44336920  0.71260976    -0.18500
C1696       C  0.86771222  0.46322151  0.78766689    -0.18500
C1697       C  0.88144096  0.32094136  0.79706166    -0.18500
H1698       H  0.86155959  0.32552572  0.67929065     0.14400
H1699       H  0.85996688  0.40196578  0.67423802     0.14400
H1700       H  0.91505465  0.36478853  0.83101394     0.14400
H1701       H  0.90636100  0.44091587  0.82650355     0.14400
H1702       H  0.85536825  0.23020257  0.74605931     0.12700
H1703       H  0.86807394  0.24056846  0.78629435     0.12700
H1704       H  0.82018408  0.01946212  0.72713215     0.12700
H1705       H  0.83128897  0.02951000  0.76795547     0.12700
H1706       H  0.83843964  0.37702340  0.73887810     0.25900
H1707       H  0.85043144  0.38579935  0.77467757     0.25900
N1708       N  0.61133742  0.11543169  0.28458134    -0.36900
N1709       N  0.58242777  0.06266181  0.25323504    -0.57400
N1710       N  0.56531491  0.12735243  0.22429230    -0.36800
N1711       N  0.59597399  0.18050842  0.25549674    -0.57400
C1712       C  0.62883011  0.08146478  0.29047331     0.26700
C1713       C  0.63088205  0.14506862  0.29376446     0.26700
C1714       C  0.56022402  0.09604753  0.21146052     0.26700
C1715       C  0.57025220  0.15925882  0.21186696     0.26700
C1716       C  0.58572672  0.03862133  0.27017323     0.35400
C1717       C  0.55742022  0.04559563  0.23966012     0.35400
C1718       C  0.60221021  0.20057225  0.27368134     0.35400
C1719       C  0.58467495  0.20705762  0.24068845     0.35400
C1720       C  0.66059876  0.08991570  0.30318945    -0.22100
C1721       C  0.66137222  0.13010483  0.30564104    -0.22100
C1722       C  0.56137514  0.10815395  0.19056047    -0.22100
C1723       C  0.56687202  0.14809825  0.19081294    -0.22100
C1724       C  0.56193922  0.00647392  0.26761771    -0.23200
C1725       C  0.54413225  0.01077713  0.24818945    -0.23200
C1726       C  0.59477388  0.24005973  0.27039819    -0.23200
C1727       C  0.58477104  0.24428156  0.24947490    -0.23200
C1728       C  0.61384149  0.04352150  0.28631417    -0.18500
C1729       C  0.62075248  0.18505575  0.29201645    -0.18500
C1730       C  0.57560232  0.19827485  0.21917363    -0.18500
C1731       C  0.55232619  0.05741817  0.21836876    -0.18500
H1732       H  0.68027916  0.06927008  0.31059759     0.14400
H1733       H  0.68212324  0.14644534  0.31495824     0.14400
H1734       H  0.55765789  0.09027593  0.17656858     0.14400
H1735       H  0.56799533  0.16663211  0.17696788     0.14400
H1736       H  0.55912422  0.48173552  0.27818389     0.12700
H1737       H  0.52496865  0.48985356  0.24074498     0.12700
H1738       H  0.59825445  0.26376095  0.28160556     0.12700
H1739       H  0.57853349  0.27185177  0.24172087     0.12700
H1740       H  0.58481474  0.11844886  0.27684027     0.25900
H1741       H  0.56159957  0.12728003  0.24057743     0.25900
N1742       N  0.84424027  0.12299522  0.27733824    -0.36900
N1743       N  0.84269008  0.05811349  0.24637755    -0.57400
N1744       N  0.85702829  0.11285926  0.21229361    -0.36800
N1745       N  0.85896736  0.17689168  0.24333926    -0.57400
C1746       C  0.82964165  0.09382570  0.28918186     0.26700
C1747       C  0.83323244  0.15735540  0.28629396     0.26700
C1748       C  0.85738525  0.07933981  0.20077063     0.26700
C1749       C  0.86572793  0.14304855  0.19931208     0.26700
C1750       C  0.83916209  0.03733207  0.26448974     0.35400
C1751       C  0.84314375  0.03199293  0.23018949     0.35400
C1752       C  0.86350199  0.20066934  0.26020388     0.35400
C1753       C  0.87524127  0.19523928  0.22688621     0.35400
C1754       C  0.80983011  0.10962603  0.30613710    -0.22100
C1755       C  0.81151116  0.14972835  0.30410324    -0.22100
C1756       C  0.86583886  0.08868493  0.17996103    -0.22100
C1757       C  0.87001975  0.12877849  0.17894259    -0.22100
C1758       C  0.83686078  0.99772333  0.25972000    -0.23200
C1759       C  0.83818723  0.99449478  0.23813920    -0.23200
C1760       C  0.88347252  0.23402491  0.25465935    -0.23200
C1761       C  0.89091978  0.23064188  0.23351893    -0.23200
C1762       C  0.83342239  0.05330689  0.28504936    -0.18500
C1763       C  0.84456206  0.19516237  0.27949496    -0.18500
C1764       C  0.87353067  0.18234806  0.20562803    -0.18500
C1765       C  0.85190863  0.04050361  0.20860544    -0.18500
H1766       H  0.79490803  0.09389360  0.31843218     0.14400
H1767       H  0.79868979  0.17079856  0.31473264     0.14400
H1768       H  0.86935637  0.06876998  0.16682304     0.14400
H1769       H  0.87755474  0.14518658  0.16495279     0.14400
H1770       H  0.83350834  0.47351402  0.27058271     0.12700
H1771       H  0.83708285  0.46730140  0.22938002     0.12700
H1772       H  0.89052695  0.25880573  0.26461805     0.12700
H1773       H  0.90540338  0.25232472  0.22401765     0.12700
H1774       H  0.86359556  0.11918672  0.26503011     0.25900
H1775       H  0.85186793  0.11525224  0.22830374     0.25900
O1776       O  0.90649054  0.34627981  0.10298466    -0.80400
O1777       O  0.55839962  0.35382787  0.15262786    -0.80400
O1778       O  0.03376234  0.30927295  0.10045813    -0.80400
O1779       O  0.94586487  0.33784510  0.17346941    -0.80400
O1780       O  0.57579132  0.35354536  0.10943391    -0.80500
O1781       O  0.92377578  0.32655304  0.14147627    -0.80400
O1782       O  0.50802612  0.31569460  0.15101232    -0.80400
O1783       O  0.95555470  0.30676919  0.10056264    -0.80400
C1784       C  0.92070513  0.31422306  0.09675786     1.09300
C1785       C  0.54121379  0.32237584  0.15827169     1.09200
C1786       C  0.56825292  0.32070795  0.10099305     1.09300
C1787       C  0.92624107  0.31680454  0.16102567     1.09200
O1788       O  0.88416732  0.39709573  0.13649884    -0.80400
O1789       O  0.53817478  0.42784975  0.10405839    -0.80500
O1790       O  0.95211859  0.38314342  0.07885454    -0.80400
O1791       O  0.50543240  0.39357135  0.16951691    -0.80400
O1792       O  0.52267035  0.43290182  0.14450441    -0.80400
O1793       O  0.93419982  0.42293135  0.10445738    -0.80400
O1794       O  0.93768628  0.40885629  0.15370506    -0.80400
O1795       O  0.03231983  0.38365763  0.07902357    -0.80400
Co1796     Co  0.93310479  0.37850468  0.12482030     1.51500
Co1797     Co  0.54520213  0.39114402  0.12751528     1.51700
Co1798     Co  0.99295987  0.34653696  0.09152982     1.51600
Co1799     Co  0.97248048  0.36006412  0.15006753     1.51500
O1800       O  0.99105211  0.37087125  0.12074024    -1.42300
C1801       C  0.90116596  0.41421534  0.15185092     1.09200
C1802       C  0.54557595  0.41616002  0.08573047     1.09300
C1803       C  0.93384864  0.41381372  0.08485017     1.09300
C1804       C  0.51612085  0.42726063  0.16359270     1.09200
C1805       C  0.89311994  0.98223925  0.19927678    -0.02100
C1806       C  0.86118548  0.00626061  0.19423791     0.07600
C1807       C  0.83811721  0.99624407  0.17636726    -0.02200
C1808       C  0.84913625  0.46499724  0.16269524    -0.02200
C1809       C  0.88237126  0.44210494  0.16738015     0.07700
C1810       C  0.90116754  0.44883213  0.18714750    -0.02400
Br1811     Br  0.93536069  0.41067490  0.19969328    -0.01000
Br1812     Br  0.92721330  0.99506438  0.22281133    -0.01000
Br1813     Br  0.81746997  0.45300688  0.13835646    -0.01000
Br1814     Br  0.79136182  0.02529977  0.17066088    -0.01000
C1815       C  0.85825432  0.24524701  0.18677074    -0.02100
C1816       C  0.88296835  0.21248419  0.18948259     0.07600
C1817       C  0.91948522  0.21254643  0.18003148    -0.02200
C1818       C  0.93087093  0.24474395  0.16792349    -0.02200
C1819       C  0.90920325  0.27980138  0.16841909     0.07700
C1820       C  0.87212111  0.27956847  0.17717066    -0.02400
Br1821     Br  0.84084043  0.32638653  0.17622618    -0.01000
Br1822     Br  0.80662511  0.24403818  0.19776198    -0.01000
Br1823     Br  0.97433687  0.23860580  0.14963902    -0.01000
Br1824     Br  0.95628484  0.17131509  0.18579184    -0.01000
C1825       C  0.55853525  0.46066045  0.18956109    -0.02100
C1826       C  0.52342519  0.45985957  0.17827617     0.07600
C1827       C  0.50038175  0.49414579  0.17735659    -0.02200
C1828       C  0.50854319  0.02583558  0.19089638    -0.02200
C1829       C  0.54329442  0.02607731  0.20263956     0.07700
C1830       C  0.56970579  0.49496804  0.20012211    -0.02400
Br1831     Br  0.62275304  0.50190588  0.20842943    -0.01000
Br1832     Br  0.59300520  0.41617172  0.18900474    -0.01000
Br1833     Br  0.47254995  0.06879208  0.19284234    -0.01000
Br1834     Br  0.96071921  0.00011437  0.15598919    -0.01000
C1835       C  0.53399308  0.29058947  0.19388713    -0.02100
C1836       C  0.55605040  0.29535895  0.17536860     0.07600
C1837       C  0.58714385  0.26924433  0.17226062    -0.02200
C1838       C  0.59561506  0.23958413  0.18738834    -0.02200
C1839       C  0.56941425  0.23162823  0.20387156     0.07700
C1840       C  0.53744231  0.25663654  0.20629695    -0.02400
Br1841     Br  0.49767866  0.24453267  0.22646468    -0.01000
Br1842     Br  0.50577398  0.33353810  0.20558387    -0.01000
Br1843     Br  0.64295281  0.21001551  0.18552052    -0.01000
Br1844     Br  0.61716717  0.27275529  0.14712803    -0.01000
C1845       C  0.54019978  0.97453428  0.80394860    -0.02100
C1846       C  0.58024687  0.46946807  0.80290241     0.07600
C1847       C  0.60456621  0.48692980  0.81816763    -0.02200
C1848       C  0.58866050  0.01113240  0.83387980    -0.02200
C1849       C  0.54821208  0.01530489  0.83526216     0.07700
C1850       C  0.52432897  0.99401940  0.82121077    -0.02400
Br1851     Br  0.97045235  0.98756701  0.82611635    -0.01000
Br1852     Br  0.00708199  0.45376981  0.78184842    -0.01000
Br1853     Br  0.62216656  0.03609104  0.85431714    -0.01000
Br1854     Br  0.65947984  0.47780154  0.81733638    -0.01000
C1855       C  0.59497147  0.25324820  0.83871462    -0.02100
C1856       C  0.57634406  0.21894164  0.83195922     0.07600
C1857       C  0.58048844  0.20701444  0.81066939    -0.02200
C1858       C  0.59304985  0.23411556  0.79539248    -0.02200
C1859       C  0.60989324  0.26996224  0.80185194     0.07700
C1860       C  0.61408158  0.27715131  0.82391413    -0.02400
Br1861     Br  0.64450949  0.32070879  0.83394722    -0.01000
Br1862     Br  0.59569572  0.26627397  0.86836750    -0.01000
Br1863     Br  0.08056643  0.22383554  0.76605008    -0.01000
Br1864     Br  0.06691586  0.15448346  0.80184448    -0.01000
C1865       C  0.91741810  0.05975781  0.80309545    -0.02100
C1866       C  0.90787190  0.06342079  0.82479266     0.07600
C1867       C  0.87748383  0.53962277  0.83232226    -0.02200
C1868       C  0.86246121  0.50871095  0.81967523    -0.02200
C1869       C  0.87870380  0.49994635  0.79979873     0.07700
C1870       C  0.90543382  0.02680922  0.79131080    -0.02400
Br1871     Br  0.92961681  0.01695668  0.76446371    -0.01000
Br1872     Br  0.94684381  0.10000868  0.78904009    -0.01000
Br1873     Br  0.81963250  0.47804334  0.82953769    -0.01000
Br1874     Br  0.85480033  0.54954516  0.85933873    -0.01000
C1875       C  0.95034214  0.24262091  0.81322513    -0.02100
C1876       C  0.92994063  0.22070120  0.82854767     0.07600
C1877       C  0.89333587  0.23512031  0.83488036    -0.02200
C1878       C  0.87853226  0.27067679  0.82637346    -0.02200
C1879       C  0.90057083  0.29299918  0.81217402     0.07700
C1880       C  0.93755451  0.27988212  0.80682566    -0.02400
Br1881     Br  0.96921831  0.31195953  0.78870521    -0.01000
Br1882     Br  0.99124817  0.22026413  0.79711490    -0.01000
Br1883     Br  0.82712780  0.28808369  0.83293034    -0.01000
Br1884     Br  0.86069758  0.20378082  0.85264468    -0.01000
C1885       C  0.66617295  0.29393875  0.07746671    -0.02100
C1886       C  0.65400101  0.27583200  0.05839046     0.07600
C1887       C  0.61902659  0.25514967  0.06021219    -0.02200
C1888       C  0.59073475  0.26793686  0.07472534    -0.02200
C1889       C  0.59927307  0.29890734  0.08916340     0.07700
C1890       C  0.63867849  0.30946150  0.09137786    -0.02400
Br1891     Br  0.65778400  0.34193600  0.11415316    -0.01000
Br1892     Br  0.71469544  0.27885904  0.09043560    -0.01000
Br1893     Br  0.54180196  0.24132324  0.07442476    -0.01000
Br1894     Br  0.61499697  0.20339461  0.04797757    -0.01000
C1895       C  0.83946245  0.26111827  0.07043105    -0.02100
C1896       C  0.84632954  0.27329871  0.04942369     0.07600
C1897       C  0.88243926  0.28977492  0.04438959    -0.02200
C1898       C  0.91045250  0.29355400  0.06022909    -0.02200
C1899       C  0.89948935  0.29075775  0.08144478     0.07700
C1900       C  0.86434857  0.27340583  0.08670685    -0.02400
Br1901     Br  0.85076084  0.26653903  0.11593905    -0.01000
Br1902     Br  0.79785707  0.22599059  0.07674076    -0.01000
Br1903     Br  0.96354424  0.30224406  0.05284784    -0.01000
Br1904     Br  0.89351193  0.31109528  0.01685294    -0.01000
C1905       C  0.60770954  0.17817614  0.92686993    -0.02100
C1906       C  0.57593252  0.20288972  0.92268971     0.07600
C1907       C  0.57771402  0.24247765  0.92897596    -0.02200
C1908       C  0.61017275  0.25647949  0.94033955    -0.02200
C1909       C  0.63943901  0.23020769  0.94713915     0.07700
C1910       C  0.63821922  0.19094683  0.94001837    -0.02400
Br1911     Br  0.67793015  0.15412491  0.94843617    -0.01000
Br1912     Br  0.61114895  0.12821224  0.91286295    -0.01000
Br1913     Br  0.61497645  0.31166163  0.94631752    -0.01000
Br1914     Br  0.53578778  0.27748816  0.92187870    -0.01000
C1915       C  0.86239484  0.19929085  0.94282789    -0.02100
C1916       C  0.84254044  0.23525220  0.94175897     0.07600
C1917       C  0.85584317  0.26423127  0.92749453    -0.02200
C1918       C  0.88805326  0.25649486  0.91431088    -0.02200
C1919       C  0.90995868  0.22186824  0.91729087     0.07700
C1920       C  0.89827327  0.19528087  0.93316682    -0.02400
Br1921     Br  0.93305460  0.15533299  0.94391026    -0.01000
Br1922     Br  0.84242041  0.15617441  0.95921654    -0.01000
Br1923     Br  0.90143648  0.29276577  0.89229215    -0.01000
Br1924     Br  0.83028903  0.31438989  0.92611516    -0.01000
C1925       C  0.59679123  0.46777920  0.04125884    -0.02100
C1926       C  0.63568183  0.46021890  0.04740853     0.07600
C1927       C  0.64195612  0.45788945  0.06951048    -0.02200
C1928       C  0.61214898  0.44404316  0.08246724    -0.02200
C1929       C  0.57514841  0.43720541  0.07358213     0.07700
C1930       C  0.56663187  0.45347351  0.05372812    -0.02400
Br1931     Br  0.51393332  0.46207174  0.04538615    -0.01000
Br1932     Br  0.58460960  0.50665652  0.01992091    -0.01000
Br1933     Br  0.62181465  0.43781658  0.11239883    -0.01000
Br1934     Br  0.68320114  0.48720357  0.08273717    -0.01000
C1935       C  0.84712847  0.47268270  0.06267197    -0.02100
C1936       C  0.84177527  0.45491392  0.04269829     0.07600
C1937       C  0.87078953  0.42973459  0.03514924    -0.02200
C1938       C  0.90349251  0.42067137  0.04779908    -0.02200
C1939       C  0.90652394  0.43396846  0.06915839     0.07700
C1940       C  0.87929585  0.46268782  0.07572808    -0.02400
Br1941     Br  0.88722350  0.49188056  0.10152927    -0.01000
Br1942     Br  0.81075519  0.51193413  0.07183018    -0.01000
Br1943     Br  0.94549595  0.39421488  0.03405898    -0.01000
Br1944     Br  0.86538757  0.40720843  0.00716659    -0.01000
C1945       C  0.60873029  0.04033276  0.95386359    -0.02100
C1946       C  0.62479129  0.00555221  0.94586636     0.07600
C1947       C  0.60750567  0.48732273  0.92827538    -0.02200
C1948       C  0.57543753  0.00493045  0.91789342    -0.02200
C1949       C  0.55965661  0.04096942  0.92541659     0.07700
C1950       C  0.57543806  0.05692392  0.94452474    -0.02400
Br1951     Br  0.55263464  0.10112911  0.95921866    -0.01000
Br1952     Br  0.63384376  0.06648098  0.97742950    -0.01000
Br1953     Br  0.55286189  0.47724494  0.89419480    -0.01000
Br1954     Br  0.62812457  0.43793513  0.91861328    -0.01000
C1955       C  0.82612496  0.05424474  0.92980142    -0.02100
C1956       C  0.82643597  0.01637658  0.93865690     0.07600
C1957       C  0.85501112  0.48926901  0.93255689    -0.02200
C1958       C  0.88485203  0.00067863  0.91889897    -0.02200
C1959       C  0.88689242  0.03984241  0.91164908     0.07700
C1960       C  0.85618213  0.06600818  0.91642370    -0.02400
Br1961     Br  0.85352235  0.11765774  0.90387271    -0.01000
Br1962     Br  0.78413487  0.08992788  0.93586530    -0.01000
Br1963     Br  0.92324662  0.46241322  0.91103674    -0.01000
Br1964     Br  0.85319547  0.43627869  0.94321143    -0.01000
C1965       C  0.63696633  0.50672667  0.68754975    -0.02100
C1966       C  0.66115147  0.48761300  0.70242555     0.07600
C1967       C  0.69887533  0.00134497  0.70580994    -0.02200
C1968       C  0.71256501  0.03349839  0.69420138    -0.02200
C1969       C  0.68955256  0.05046837  0.67774251     0.07700
C1970       C  0.65124081  0.03775043  0.67510303    -0.02400
Br1971     Br  0.61677976  0.56674025  0.65675804    -0.01000
Br1972     Br  0.58361597  0.49194365  0.68521503    -0.01000
Br1973     Br  0.76174071  0.05525777  0.70262661    -0.01000
Br1974     Br  0.73117878  0.97673557  0.72726114    -0.01000
C1975       C  0.70792386  0.25469371  0.67063148    -0.02100
C1976       C  0.68286476  0.22200427  0.66884137     0.07600
C1977       C  0.64766569  0.22245620  0.67986995    -0.02200
C1978       C  0.63908820  0.25369939  0.69359783    -0.02200
C1979       C  0.66630535  0.28358797  0.69726817     0.07700
C1980       C  0.70032161  0.28455564  0.68532356    -0.02400
Br1981     Br  0.73728497  0.32614523  0.68945425    -0.01000
Br1982     Br  0.75235225  0.26009895  0.65256621    -0.01000
Br1983     Br  0.58975355  0.25577220  0.70743685    -0.01000
Br1984     Br  0.61189211  0.17952087  0.67757116    -0.01000
C1985       C  0.85980380  0.03189666  0.67692662    -0.02100
C1986       C  0.82724864  0.03081397  0.66321826     0.07600
C1987       C  0.80317504  0.99722707  0.66370097    -0.02200
C1988       C  0.80826202  0.96847401  0.67956934    -0.02200
C1989       C  0.83952744  0.47094442  0.69402919     0.07700
C1990       C  0.86681358  0.50106035  0.69135694    -0.02400
Br1991     Br  0.91409437  0.50010744  0.70769059    -0.01000
Br1992     Br  0.89297182  0.07713854  0.67825111    -0.01000
Br1993     Br  0.77077881  0.92711792  0.68198622    -0.01000
Br1994     Br  0.76201585  0.99062511  0.64307158    -0.01000
C1995       C  0.80227536  0.21318228  0.69964298    -0.02100
C1996       C  0.82875456  0.20163812  0.68403778     0.07600
C1997       C  0.86477825  0.22007101  0.68267944    -0.02200
C1998       C  0.87329572  0.25190160  0.69592513    -0.02200
C1999       C  0.84448947  0.26731058  0.70916597     0.07700
C2000       C  0.80925456  0.24721925  0.71137608    -0.02400
Br2001     Br  0.77106027  0.26536513  0.73118727    -0.01000
Br2002     Br  0.75708452  0.18239216  0.70571644    -0.01000
Br2003     Br  0.92480234  0.27286517  0.69674761    -0.01000
Br2004     Br  0.90316653  0.19978876  0.66363204    -0.01000
C2005       C  0.65144447  0.44053602  0.30040215    -0.02100
C2006       C  0.65930544  0.44357705  0.32235198     0.07600
C2007       C  0.64829454  0.47887430  0.33260789    -0.02200
C2008       C  0.62888581  0.00885286  0.32121674    -0.02200
C2009       C  0.62803435  0.00837734  0.29885068     0.07700
C2010       C  0.64090627  0.47394017  0.28859737    -0.02400
Br2011     Br  0.64864298  0.47244273  0.25853896    -0.01000
Br2012     Br  0.65232900  0.39061817  0.28608169    -0.01000
Br2013     Br  0.60199208  0.04941713  0.33655611    -0.01000
Br2014     Br  0.66251497  0.98963255  0.36151388    -0.01000
C2015       C  0.67655730  0.27034529  0.31364916    -0.02100
C2016       C  0.65872644  0.27838407  0.33326810     0.06000
C2017       C  0.62923902  0.25284907  0.34007864    -0.02200
C2018       C  0.61718439  0.22136339  0.32697193    -0.02200
C2019       C  0.63633870  0.21350072  0.30783300     0.07700
C2020       C  0.66761819  0.23666903  0.30203369    -0.02400
Br2021     Br  0.69734714  0.22267221  0.27741782    -0.01000
Br2022     Br  0.70857709  0.30792220  0.30013882    -0.01000
Br2023     Br  0.57428203  0.18909831  0.33493736    -0.01000
Br2024     Br  0.60574346  0.25974410  0.36724656    -0.01000
C2025       C  0.84201529  0.48008664  0.33068735    -0.02100
C2026       C  0.80637346  0.46047648  0.32832138     0.07600
C2027       C  0.78121821  0.47267847  0.31181554    -0.02200
C2028       C  0.78705375  0.00767386  0.30107572    -0.02200
C2029       C  0.82322159  0.02538384  0.30216862     0.07700
C2030       C  0.85099906  0.01155663  0.31694134    -0.02400
Br2031     Br  0.90125155  0.03525860  0.31784154    -0.01000
Br2032     Br  0.87940531  0.46270114  0.35143497    -0.01000
Br2033     Br  0.74692282  0.02857662  0.28271010    -0.01000
Br2034     Br  0.74949827  0.43582136  0.29729821    -0.01000
C2035       C  0.83808078  0.26488608  0.32640896    -0.02100
C2036       C  0.81314935  0.29496156  0.31832447     0.07600
C2037       C  0.80583584  0.29547228  0.29633379    -0.02200
C2038       C  0.81286795  0.26167923  0.28419306    -0.02200
C2039       C  0.83537557  0.23056913  0.29261164     0.07700
C2040       C  0.85084884  0.23438648  0.31314545    -0.02400
Br2041     Br  0.89069439  0.19848361  0.32276992    -0.01000
Br2042     Br  0.85755731  0.26487237  0.35517765    -0.01000
Br2043     Br  0.78951395  0.25792054  0.25644512    -0.01000
Br2044     Br  0.79241380  0.34341111  0.28185258    -0.01000
C2045       C  0.61390223  0.19936117  0.56890438    -0.02100
C2046       C  0.61727523  0.23221995  0.55572122     0.07600
C2047       C  0.65115636  0.25536990  0.55769927    -0.02200
C2048       C  0.68231350  0.24223430  0.57073495    -0.02200
C2049       C  0.67658262  0.21142390  0.58522844     0.07700
C2050       C  0.63966245  0.19421428  0.58573913    -0.02400
Br2051     Br  0.61776046  0.17490262  0.61137999    -0.01000
Br2052     Br  0.57571031  0.15947422  0.56375637    -0.01000
Br2053     Br  0.73218482  0.26637586  0.56905753    -0.01000
Br2054     Br  0.65554533  0.30375751  0.54220840    -0.01000
C2055       C  0.89850932  0.25803616  0.57034041    -0.02100
C2056       C  0.91192965  0.23938568  0.55189145     0.07600
C2057       C  0.89001232  0.20835716  0.54336552    -0.02200
C2058       C  0.85542092  0.19693332  0.55283768    -0.02200
C2059       C  0.84693010  0.20870727  0.57366419     0.07700
C2060       C  0.86733762  0.24170291  0.58178874    -0.02400
Br2061     Br  0.85070223  0.26754738  0.60726230    -0.01000
Br2062     Br  0.92175960  0.30657264  0.57927716    -0.01000
Br2063     Br  0.81641151  0.17394070  0.53503229    -0.01000
Br2064     Br  0.90817241  0.17920711  0.51928048    -0.01000
C2065       C  0.63933486  0.23423242  0.43743901    -0.02100
C2066       C  0.60888165  0.25692318  0.44603455     0.07600
C2067       C  0.60549551  0.29627516  0.43998242    -0.02200
C2068       C  0.62973677  0.31132725  0.42464570    -0.02200
C2069       C  0.66469482  0.29263953  0.41963869     0.07700
C2070       C  0.66846113  0.25267159  0.42519013    -0.02400
Br2071     Br  0.71166284  0.22308959  0.41499107    -0.01000
Br2072     Br  0.64056740  0.17855063  0.44214875    -0.01000
Br2073     Br  0.60325530  0.34051289  0.40353583    -0.01000
Br2074     Br  0.56693147  0.33058413  0.45192610    -0.01000
C2075       C  0.91610088  0.29937822  0.43094108    -0.02100
C2076       C  0.91021439  0.27295888  0.44776831     0.07600
C2077       C  0.87208529  0.25927197  0.45119865    -0.02200
C2078       C  0.84035770  0.27614091  0.44017519    -0.02200
C2079       C  0.84662459  0.30119343  0.42291286     0.07700
C2080       C  0.88532416  0.30950111  0.41724320    -0.02400
Br2081     Br  0.89759493  0.33701385  0.39157125    -0.01000
Br2082     Br  0.96444416  0.32689923  0.42812052    -0.01000
Br2083     Br  0.78845644  0.26550256  0.44891877    -0.01000
Br2084     Br  0.86279431  0.21777670  0.47114896    -0.01000
C2085       C  0.65786119  0.09061940  0.55728046    -0.02100
C2086       C  0.65884159  0.07527289  0.57818331     0.07600
C2087       C  0.63547874  0.04267022  0.58274219    -0.02200
C2088       C  0.60919577  0.02812223  0.56737609    -0.02200
C2089       C  0.60624424  0.04591623  0.54721189     0.07700
C2090       C  0.63063808  0.07727137  0.54233725    -0.02400
Br2091     Br  0.62512821  0.10386990  0.51536726    -0.01000
Br2092     Br  0.69530805  0.12723334  0.54733068    -0.01000
Br2093     Br  0.57715990  0.98383042  0.57387979    -0.01000
Br2094     Br  0.64181220  0.01597644  0.60938734    -0.01000
C2095       C  0.91173718  0.02237108  0.56701045    -0.02100
C2096       C  0.90665423  0.03693668  0.54616034     0.07600
C2097       C  0.87263828  0.05780489  0.54085162    -0.02200
C2098       C  0.84458483  0.06361298  0.55618403    -0.02200
C2099       C  0.85385451  0.05687252  0.57758059     0.07700
C2100       C  0.88685072  0.03506368  0.58304952    -0.02400
Br2101     Br  0.89689165  0.52184236  0.61223497    -0.01000
Br2102     Br  0.95233868  0.48533399  0.57364249    -0.01000
Br2103     Br  0.79337753  0.07977535  0.54757686    -0.01000
Br2104     Br  0.86518040  0.08249298  0.51355336    -0.01000
C2105       C  0.63751119  0.50072599  0.43734619    -0.02100
C2106       C  0.60020432  0.48543852  0.44034830     0.07600
C2107       C  0.58741788  0.45506347  0.42677934    -0.02200
C2108       C  0.61107973  0.44183168  0.41047132    -0.02200
C2109       C  0.65087485  0.44875022  0.41147052     0.07700
C2110       C  0.66376006  0.48089959  0.42407693    -0.02400
Br2111     Br  0.71591240  0.50054197  0.42277044    -0.01000
Br2112     Br  0.65211740  0.04936349  0.45081792    -0.01000
Br2113     Br  0.58719513  0.42756837  0.38392595    -0.01000
Br2114     Br  0.53902094  0.42863202  0.43069700    -0.01000
C2115       C  0.90793268  0.44636960  0.44086241    -0.02100
C2116       C  0.91082968  0.48725466  0.43923155     0.07600
C2117       C  0.88498558  0.50782942  0.42578959    -0.02200
C2118       C  0.85741216  0.48705378  0.41347177    -0.02200
C2119       C  0.85367563  0.44610226  0.41595768     0.07700
C2120       C  0.87670678  0.42725100  0.43143863    -0.02400
Br2121     Br  0.85753826  0.38288176  0.44635638    -0.01000
Br2122     Br  0.94358723  0.41694047  0.45862112    -0.01000
Br2123     Br  0.82269565  0.51488250  0.39478017    -0.01000
Br2124     Br  0.88626344  0.56417204  0.42520279    -0.01000
N2125       N  0.94680235  0.02302226  0.49230408    -0.36900
N2126       N  0.50646618  0.53129320  0.52498707    -0.57400
N2127       N  0.56489492  0.52125868  0.49384065    -0.36800
N2128       N  0.50515042  0.01379744  0.46161259    -0.57400
C2129       C  0.92802415  0.51515167  0.51039911     0.26700
C2130       C  0.92622859  0.00683591  0.47631017     0.26700
C2131       C  0.58537554  0.51704236  0.51208423     0.26700
C2132       C  0.58430190  0.00257038  0.47832015     0.26700
C2133       C  0.97489665  0.54488258  0.53486263     0.35400
C2134       C  0.53707077  0.54510219  0.53593676     0.35400
C2135       C  0.97431115  0.01719978  0.44851197     0.35400
C2136       C  0.53682721  0.01599095  0.44954044     0.35400
C2137       C  0.89503159  0.49380701  0.50596776    -0.22100
C2138       C  0.89346768  0.98920354  0.48438296    -0.22100
C2139       C  0.61870970  0.49596459  0.50816780    -0.22100
C2140       C  0.61768776  0.98610282  0.48693589    -0.22100
C2141       C  0.98539545  0.56798415  0.55198819    -0.23200
C2142       C  0.52495585  0.56765161  0.55282895    -0.23200
C2143       C  0.98632140  0.02269438  0.42793205    -0.23200
C2144       C  0.52604525  0.02281340  0.42862639    -0.23200
C2145       C  0.93736040  0.53181933  0.53016216    -0.18500
C2146       C  0.93661202  0.00759400  0.45468669    -0.18500
C2147       C  0.57358827  0.00272340  0.45647204    -0.18500
C2148       C  0.57547136  0.53461987  0.53162516    -0.18500
H2149       H  0.87348974  0.48412778  0.51704847     0.14400
H2150       H  0.87066889  0.97457012  0.47571507     0.14400
H2151       H  0.64127896  0.48848243  0.51943195     0.14400
H2152       H  0.63960926  0.96961142  0.47870949     0.14400
H2153       H  0.96657286  0.58210633  0.56322890     0.12700
H2154       H  0.54264420  0.58123048  0.56489960     0.12700
H2155       H  0.96845251  0.02423494  0.41382225     0.12700
H2156       H  0.54475961  0.02412696  0.41505665     0.12700
H2157       H  0.97004587  0.04202203  0.49082452     0.25900
H2158       H  0.54121305  0.53975148  0.49169866     0.25900
N2159       N  0.57229827  0.74329959  0.50084337    -0.36900
N2160       N  0.01570476  0.75112415  0.53428420    -0.57400
N2161       N  0.95644873  0.75795999  0.50151319    -0.36800
N2162       N  0.01108562  0.74820734  0.46856013    -0.57400
C2163       C  0.59602674  0.73808149  0.51782959     0.26700
C2164       C  0.59386353  0.73915379  0.48320672     0.26700
C2165       C  0.93807264  0.76917975  0.51924739     0.26700
C2166       C  0.93654312  0.77335260  0.48492561     0.26700
C2167       C  0.54718894  0.74640003  0.54685153     0.35400
C2168       C  0.98423651  0.74829536  0.54671670     0.35400
C2169       C  0.54106520  0.73982695  0.45583310     0.35400
C2170       C  0.97857472  0.74826450  0.45649395     0.35400
C2171       C  0.63285250  0.72949767  0.51067205    -0.22100
C2172       C  0.63176492  0.73167305  0.48904832    -0.22100
C2173       C  0.90656450  0.79233486  0.51411195    -0.22100
C2174       C  0.90619314  0.79598751  0.49244617    -0.22100
C2175       C  0.53527022  0.74326658  0.56773930    -0.23200
C2176       C  0.99555271  0.74244376  0.56747838    -0.23200
C2177       C  0.52749431  0.73356982  0.43542636    -0.23200
C2178       C  0.98780869  0.73768997  0.43596846    -0.23200
C2179       C  0.58591322  0.74077554  0.53962634    -0.18500
C2180       C  0.58066947  0.74201371  0.46192841    -0.18500
C2181       C  0.94243132  0.76361243  0.46335378    -0.18500
C2182       C  0.94580163  0.75397542  0.53953583    -0.18500
H2183       H  0.65836864  0.72261582  0.51993546     0.14400
H2184       H  0.65627618  0.72719351  0.47893475     0.14400
H2185       H  0.88567356  0.80457988  0.52488271     0.14400
H2186       H  0.88476512  0.81188754  0.48326752     0.14400
H2187       H  0.55311478  0.73995348  0.58175527     0.12700
H2188       H  0.97730841  0.73932066  0.58113045     0.12700
H2189       H  0.54452850  0.72737497  0.42156873     0.12700
H2190       H  0.96840950  0.73587146  0.42249216     0.12700
H2191       H  0.54369132  0.75181677  0.50115092     0.25900
H2192       H  0.97724498  0.73588470  0.50089480     0.25900
O2193       O  0.81099069  0.81500784  0.39195323    -0.80400
O2194       O  0.65241006  0.83349461  0.35804667    -0.80400
O2195       O  0.71005244  0.84567889  0.41783706    -0.80400
O2196       O  0.77415717  0.85293538  0.32744130    -0.80400
O2197       O  0.70194401  0.81043323  0.38924636    -0.80500
O2198       O  0.79371929  0.81615024  0.35229812    -0.80400
O2199       O  0.70976239  0.81974364  0.34578653    -0.80400
O2200       O  0.79306300  0.84728416  0.42026883    -0.80400
C2201       C  0.81400692  0.82114705  0.41139477     1.09300
C2202       C  0.67350224  0.81198401  0.34632465     1.09200
C2203       C  0.69532716  0.81592821  0.40859716     1.09300
C2204       C  0.79331080  0.82307212  0.33304415     1.09200
O2205       O  0.81641257  0.90093188  0.34899362    -0.80400
O2206       O  0.66696591  0.88856176  0.39277683    -0.80500
O2207       O  0.78933312  0.92828010  0.40693375    -0.80400
O2208       O  0.70265019  0.88812918  0.32346953    -0.80400
O2209       O  0.68293179  0.90820108  0.35380936    -0.80400
O2210       O  0.83591476  0.89519620  0.39195140    -0.80400
O2211       O  0.75803850  0.92653685  0.34674598    -0.80400
O2212       O  0.71360185  0.92669297  0.40245690    -0.80400
Co2213     Co  0.81041839  0.85765733  0.37144881     1.51500
Co2214     Co  0.69749891  0.85793783  0.37111400     1.51700
Co2215     Co  0.75132129  0.88560396  0.40958400     1.51600
Co2216     Co  0.73385952  0.87473734  0.34778818     1.51500
O2217       O  0.75425110  0.87068031  0.37803374    -1.42300
C2218       C  0.79353037  0.92820256  0.34261498     1.09200
C2219       C  0.67817690  0.92040373  0.40122484     1.09300
C2220       C  0.82465323  0.92269161  0.40386615     1.09300
C2221       C  0.68142267  0.91140871  0.33357651     1.09200
O2222       O  0.82241752  0.68724838  0.60710145    -0.80400
O2223       O  0.67373197  0.66422174  0.64690321    -0.80400
O2224       O  0.72485075  0.66219197  0.58419984    -0.80400
O2225       O  0.80464638  0.64034792  0.67340629    -0.80400
O2226       O  0.71580672  0.69063312  0.61480135    -0.80500
O2227       O  0.81703925  0.68100398  0.64880057    -0.80400
O2228       O  0.73263229  0.67830427  0.65826067    -0.80400
O2229       O  0.80413548  0.65365733  0.57953476    -0.80400
C2230       C  0.82182193  0.68298105  0.58734879     1.09300
C2231       C  0.69628325  0.68625377  0.65762083     1.09200
C2232       C  0.70940115  0.68917140  0.59511554     1.09300
C2233       C  0.81776358  0.67255393  0.66816414     1.09200
O2234       O  0.83630097  0.59396983  0.64557995    -0.80400
O2235       O  0.67775817  0.61844727  0.60697356    -0.80500
O2236       O  0.79614230  0.57239024  0.59416242    -0.80400
O2237       O  0.72510974  0.60837440  0.67379872    -0.80400
O2238       O  0.70218907  0.58682753  0.64486766    -0.80400
O2239       O  0.84672609  0.60664979  0.60311924    -0.80400
O2240       O  0.77788264  0.57297167  0.65114308    -0.80400
O2241       O  0.72069393  0.57889280  0.59449810    -0.80400
Co2242     Co  0.82609923  0.64135943  0.62609010     1.51500
Co2243     Co  0.71318578  0.63990191  0.63020852     1.51700
Co2244     Co  0.76188296  0.61737190  0.59020391     1.51600
Co2245     Co  0.76262363  0.62741103  0.65387338     1.51500
O2246       O  0.76783062  0.62800748  0.62178205    -1.42300
C2247       C  0.81356403  0.56692505  0.65188073     1.09200
C2248       C  0.68657292  0.59095856  0.59437461     1.09300
C2249       C  0.83164279  0.57797537  0.59347209     1.09300
C2250       C  0.70477744  0.58361712  0.66493942     1.09200
N2251       N  0.79079046  0.98341059  0.99199796    -0.36900
N2252       N  0.72905965  0.99183875  0.96092797    -0.57400
N2253       N  0.67561239  0.97493822  0.99386459    -0.36800
N2254       N  0.73713325  0.96590418  0.02529164    -0.57400
C2255       C  0.80936924  0.00228572  0.97623478     0.26700
C2256       C  0.81365165  0.98528669  0.00954459     0.26700
C2257       C  0.65395843  0.96930907  0.97622338     0.26700
C2258       C  0.65839230  0.95492485  0.00952955     0.26700
C2259       C  0.75864698  0.99903206  0.94789232     0.35400
C2260       C  0.69647039  0.99597650  0.94925944     0.35400
C2261       C  0.76997258  0.95278876  0.03466269     0.35400
C2262       C  0.70738105  0.95219773  0.03672839     0.35400
C2263       C  0.84409861  0.01671060  0.98399551    -0.22100
C2264       C  0.84677199  0.00601501  0.00496138    -0.22100
C2265       C  0.62368854  0.94441747  0.98040680    -0.22100
C2266       C  0.62729412  0.93408431  0.00136810    -0.22100
C2267       C  0.74470815  0.50577906  0.92752085    -0.23200
C2268       C  0.70514361  0.50532453  0.92859550    -0.23200
C2269       C  0.76113750  0.92916659  0.05173236    -0.23200
C2270       C  0.72142980  0.92823454  0.05280290    -0.23200
C2271       C  0.79719854  0.00487532  0.95469500    -0.18500
C2272       C  0.80741988  0.96474019  0.02874866    -0.18500
C2273       C  0.66802337  0.95843287  0.03122018    -0.18500
C2274       C  0.65931889  0.98858676  0.95688161    -0.18500
H2275       H  0.86567998  0.03271299  0.97532784     0.14400
H2276       H  0.87088509  0.01180277  0.01549041     0.14400
H2277       H  0.60141406  0.93486394  0.96948606     0.14400
H2278       H  0.60804788  0.91503393  0.00990359     0.14400
H2279       H  0.76118631  0.51254008  0.91356129     0.12700
H2280       H  0.68520793  0.51006061  0.91555697     0.12700
H2281       H  0.78113006  0.91431681  0.06230375     0.12700
H2282       H  0.70487814  0.91137668  0.06395541     0.12700
H2283       H  0.76647705  0.96590257  0.99022520     0.25900
H2284       H  0.69730643  0.99572958  0.99582024     0.25900
N2285       N  0.68489604  0.75904009  0.99991565    -0.36900
N2286       N  0.74235765  0.74778331  0.96552997    -0.57400
N2287       N  0.80250978  0.75708504  0.99588045    -0.36800
N2288       N  0.74652922  0.76614201  0.03121512    -0.57400
C2289       C  0.66065446  0.75144638  0.98350796     0.26700
C2290       C  0.66357310  0.76548241  0.01763334     0.26700
C2291       C  0.82371013  0.74357471  0.97966076     0.26700
C2292       C  0.82299646  0.75029110  0.01383119     0.26700
C2293       C  0.70942687  0.74503527  0.95392965     0.35400
C2294       C  0.77240685  0.74626649  0.95190111     0.35400
C2295       C  0.71736929  0.78729880  0.03922719     0.35400
C2296       C  0.77908064  0.78468523  0.03691553     0.35400
C2297       C  0.62308131  0.75390974  0.99081525    -0.22100
C2298       C  0.62492552  0.76425779  0.01185907    -0.22100
C2299       C  0.85861742  0.72924142  0.98769799    -0.22100
C2300       C  0.85667806  0.73055396  0.00926392    -0.22100
C2301       C  0.71874697  0.74198391  0.93267464    -0.23200
C2302       C  0.75841280  0.74262773  0.93141922    -0.23200
C2303       C  0.73144151  0.82054178  0.04919745    -0.23200
C2304       C  0.77105589  0.81803319  0.04846537    -0.23200
C2305       C  0.67106745  0.74317010  0.96204513    -0.18500
C2306       C  0.67876900  0.77483876  0.03829657    -0.18500
C2307       C  0.81553274  0.76891706  0.03312803    -0.18500
C2308       C  0.81208953  0.74382223  0.95799558    -0.18500
H2309       H  0.59665039  0.75002631  0.98186943     0.14400
H2310       H  0.60019083  0.77108196  0.02144129     0.14400
H2311       H  0.88362743  0.71898569  0.97932001     0.14400
H2312       H  0.87959340  0.72220582  0.02013701     0.14400
H2313       H  0.69899856  0.73887568  0.91942107     0.12700
H2314       H  0.77500492  0.73951900  0.91711707     0.12700
H2315       H  0.71490294  0.84317384  0.05691555     0.12700
H2316       H  0.79152356  0.83828862  0.05537706     0.12700
H2317       H  0.71469889  0.75922464  0.99893677     0.25900
H2318       H  0.77830319  0.77517391  0.99459926     0.25900
O2319       O  0.51325881  0.59264369  0.92099015    -0.80400
O2320       O  0.55635123  0.66010127  0.84848361    -0.80400
O2321       O  0.49818337  0.54117756  0.85697182    -0.80400
O2322       O  0.53880508  0.69298318  0.89153917    -0.80400
O2323       O  0.54606900  0.57979522  0.84887754    -0.80500
O2324       O  0.51597615  0.66861729  0.91987695    -0.80400
O2325       O  0.52085867  0.71218819  0.85466436    -0.80400
O2326       O  0.51766979  0.55307519  0.89505263    -0.80400
C2327       C  0.52846336  0.56283401  0.91327558     1.09300
C2328       C  0.55076814  0.69649358  0.84633879     1.09200
C2329       C  0.53088148  0.54622452  0.84855558     1.09300
C2330       C  0.54199165  0.68755322  0.91084483     1.09200
O2331       O  0.93898365  0.67072304  0.89833760    -0.80400
O2332       O  0.96945262  0.59076233  0.83250026    -0.80500
O2333       O  0.94150500  0.53486754  0.88811302    -0.80400
O2334       O  0.94235540  0.68031666  0.85894497    -0.80400
O2335       O  0.97862988  0.66995194  0.83202699    -0.80400
O2336       O  0.93355702  0.58989355  0.90618134    -0.80400
O2337       O  0.96460603  0.72797028  0.89219856    -0.80400
O2338       O  0.92983383  0.59122071  0.85880482    -0.80400
Co2339     Co  0.97779677  0.63029517  0.90739634     1.51500
Co2340     Co  0.01219363  0.62514252  0.84292025     1.51700
Co2341     Co  0.97363183  0.57606377  0.87838232     1.51600
Co2342     Co  0.98929084  0.68383048  0.87701953     1.51500
O2343       O  0.00066243  0.62657718  0.87506857    -1.42300
C2344       C  0.93990427  0.70736501  0.90226320     1.09200
C2345       C  0.93587164  0.58467615  0.83936309     1.09300
C2346       C  0.92237827  0.55502129  0.90127436     1.09300
C2347       C  0.94942635  0.68690591  0.83984700     1.09200
N2348       N  0.65048446  0.88404678  0.72073712    -0.36900
N2349       N  0.63900258  0.81937481  0.75068459    -0.57400
N2350       N  0.61197600  0.87340939  0.78101295    -0.36800
N2351       N  0.62185609  0.93841624  0.75112918    -0.57400
C2352       C  0.65128104  0.85279493  0.70763253     0.26700
C2353       C  0.64700379  0.91655186  0.70856539     0.26700
C2354       C  0.59976055  0.83895745  0.78916440     0.26700
C2355       C  0.59063242  0.90197440  0.78989410     0.26700
C2356       C  0.65861978  0.80107569  0.73526561     0.35400
C2357       C  0.64087213  0.79608756  0.76801079     0.35400
C2358       C  0.63550030  0.96463287  0.73707144     0.35400
C2359       C  0.61346551  0.95877313  0.76878088     0.35400
C2360       C  0.64798918  0.86567570  0.68684400    -0.22100
C2361       C  0.64620889  0.90599080  0.68743530    -0.22100
C2362       C  0.56972470  0.84570983  0.80296658    -0.22100
C2363       C  0.56475393  0.88544738  0.80393636    -0.22100
C2364       C  0.67330339  0.76583958  0.74285238    -0.23200
C2365       C  0.66299662  0.76321590  0.76381137    -0.23200
C2366       C  0.63499505  0.00194744  0.74566868    -0.23200
C2367       C  0.62078134  0.99826675  0.76574472    -0.23200
C2368       C  0.65895351  0.81357925  0.71389302    -0.18500
C2369       C  0.64658961  0.95543793  0.71621136    -0.18500
C2370       C  0.59612638  0.94259266  0.78685418    -0.18500
C2371       C  0.61796222  0.80226926  0.78613205    -0.18500
H2372       H  0.64839212  0.84798082  0.67265516     0.14400
H2373       H  0.64443311  0.92524517  0.67386314     0.14400
H2374       H  0.05402229  0.82439862  0.81211205     0.14400
H2375       H  0.04452821  0.90011520  0.81415117     0.14400
H2376       H  0.68861834  0.74369948  0.73400146     0.12700
H2377       H  0.66875546  0.73872808  0.77426534     0.12700
H2378       H  0.64334884  0.52905349  0.73815359     0.12700
H2379       H  0.61594239  0.52203452  0.77672950     0.12700
H2380       H  0.65684897  0.88355099  0.73683955     0.25900
H2381       H  0.63680705  0.87788258  0.77223633     0.25900
N2382       N  0.84765235  0.87400689  0.72338445    -0.36900
N2383       N  0.86432265  0.82307275  0.75930272    -0.57400
N2384       N  0.86828325  0.89034807  0.78773043    -0.36800
N2385       N  0.85389296  0.94125743  0.75126899    -0.57400
C2386       C  0.85292550  0.83961719  0.71320632     0.26700
C2387       C  0.85006752  0.90298807  0.70882837     0.26700
C2388       C  0.88337719  0.86202898  0.80050034     0.26700
C2389       C  0.87742760  0.92563058  0.79627215     0.26700
C2390       C  0.85762186  0.79525259  0.74454694     0.35400
C2391       C  0.86861457  0.80388754  0.77788182     0.35400
C2392       C  0.84109033  0.95924915  0.73339268     0.35400
C2393       C  0.85106959  0.96774501  0.76715376     0.35400
C2394       C  0.85771684  0.84673555  0.69179138    -0.22100
C2395       C  0.85699546  0.88671522  0.68913352    -0.22100
C2396       C  0.90104828  0.87936948  0.81779181    -0.22100
C2397       C  0.89702910  0.91927126  0.81521734    -0.22100
C2398       C  0.85846417  0.75836051  0.75372220    -0.23200
C2399       C  0.86497357  0.76381721  0.77476815    -0.23200
C2400       C  0.82990459  0.99722349  0.73806525    -0.23200
C2401       C  0.83574914  0.00247728  0.75937671    -0.23200
C2402       C  0.85218526  0.80203824  0.72268245    -0.18500
C2403       C  0.84322782  0.94337042  0.71260957    -0.18500
C2404       C  0.86771370  0.96322404  0.78766635    -0.18500
C2405       C  0.88144656  0.82094446  0.79706108    -0.18500
H2406       H  0.86156017  0.82552666  0.67929093     0.14400
H2407       H  0.85996693  0.90196665  0.67423802     0.14400
H2408       H  0.91506259  0.86479256  0.83101228     0.14400
H2409       H  0.90636654  0.94091963  0.82650203     0.14400
H2410       H  0.85536927  0.73020456  0.74605996     0.12700
H2411       H  0.86807854  0.74057130  0.78629467     0.12700
H2412       H  0.82018442  0.51946069  0.72713261     0.12700
H2413       H  0.83128823  0.52950777  0.76795608     0.12700
H2414       H  0.83843934  0.87702494  0.73887817     0.25900
H2415       H  0.85043411  0.88580144  0.77467748     0.25900
N2416       N  0.61133622  0.61543110  0.28458170    -0.36900
N2417       N  0.58242738  0.56266070  0.25323525    -0.57400
N2418       N  0.56531573  0.62735102  0.22429207    -0.36800
N2419       N  0.59597435  0.68050746  0.25549648    -0.57400
C2420       C  0.62882858  0.58146422  0.29047403     0.26700
C2421       C  0.63088059  0.64506815  0.29376491     0.26700
C2422       C  0.56022457  0.59604604  0.21146038     0.26700
C2423       C  0.57025298  0.65925729  0.21186663     0.26700
C2424       C  0.58572600  0.53862038  0.27017354     0.35400
C2425       C  0.55742032  0.54559424  0.23966011     0.35400
C2426       C  0.60221012  0.70057162  0.27368104     0.35400
C2427       C  0.58467581  0.70705647  0.24068795     0.35400
C2428       C  0.66059675  0.58991529  0.30319051    -0.22100
C2429       C  0.66137021  0.63010445  0.30564194    -0.22100
C2430       C  0.56137566  0.60815229  0.19056030    -0.22100
C2431       C  0.56687259  0.64809658  0.19081265    -0.22100
C2432       C  0.56193883  0.50647276  0.26761785    -0.23200
C2433       C  0.54413238  0.51077570  0.24818941    -0.23200
C2434       C  0.59477417  0.74005908  0.27039759    -0.23200
C2435       C  0.58477190  0.74428056  0.24947420    -0.23200
C2436       C  0.61384024  0.54352083  0.28631479    -0.18500
C2437       C  0.62075145  0.68505536  0.29201650    -0.18500
C2438       C  0.57560312  0.69827340  0.21917316    -0.18500
C2439       C  0.55232641  0.55741678  0.21836870    -0.18500
H2440       H  0.68027687  0.56926979  0.31059896     0.14400
H2441       H  0.68212094  0.64644504  0.31495929     0.14400
H2442       H  0.55765826  0.59027422  0.17656845     0.14400
H2443       H  0.56799576  0.66663034  0.17696756     0.14400
H2444       H  0.55912477  0.98173663  0.27818373     0.12700
H2445       H  0.52496820  0.98985517  0.24074511     0.12700
H2446       H  0.59825446  0.76376049  0.28160486     0.12700
H2447       H  0.57853456  0.77185064  0.24171999     0.12700
H2448       H  0.58481392  0.61844824  0.27684021     0.25900
H2449       H  0.56160047  0.62727879  0.24057721     0.25900
N2450       N  0.84424185  0.62299573  0.27733865    -0.36900
N2451       N  0.84268912  0.55811408  0.24637784    -0.57400
N2452       N  0.85702485  0.61285985  0.21229351    -0.36800
N2453       N  0.85896637  0.67689225  0.24333923    -0.57400
C2454       C  0.82964416  0.59382627  0.28918267     0.26700
C2455       C  0.83323500  0.65735594  0.28629470     0.26700
C2456       C  0.85738177  0.57934030  0.20077060     0.26700
C2457       C  0.86572430  0.64304907  0.19931187     0.26700
C2458       C  0.83916132  0.53733264  0.26449005     0.35400
C2459       C  0.84314113  0.53199363  0.23018969     0.35400
C2460       C  0.86350234  0.70066980  0.26020381     0.35400
C2461       C  0.87523927  0.69523985  0.22688587     0.35400
C2462       C  0.80983441  0.60962670  0.30613852    -0.22100
C2463       C  0.81151544  0.64972899  0.30410461    -0.22100
C2464       C  0.86583483  0.58868533  0.17996092    -0.22100
C2465       C  0.87001561  0.62877890  0.17894237    -0.22100
C2466       C  0.83685835  0.49772404  0.25972022    -0.23200
C2467       C  0.83818380  0.49449560  0.23813938    -0.23200
C2468       C  0.88347261  0.73402531  0.25465892    -0.23200
C2469       C  0.89091846  0.73064231  0.23351834    -0.23200
C2470       C  0.83342366  0.55330741  0.28504991    -0.18500
C2471       C  0.84456376  0.69516291  0.27949528    -0.18500
C2472       C  0.87352770  0.68234852  0.20562772    -0.18500
C2473       C  0.85190560  0.54050409  0.20860555    -0.18500
H2474       H  0.79491333  0.59389437  0.31843401     0.14400
H2475       H  0.79869506  0.67079921  0.31473437     0.14400
H2476       H  0.86935213  0.56877033  0.16682293     0.14400
H2477       H  0.87755037  0.64518692  0.16495251     0.14400
H2478       H  0.83351102  0.97351329  0.27058249     0.12700
H2479       H  0.83708744  0.96730046  0.22937991     0.12700
H2480       H  0.89052789  0.75880600  0.26461753     0.12700
H2481       H  0.90540173  0.75232505  0.22401685     0.12700
H2482       H  0.86359575  0.61918716  0.26502987     0.25900
H2483       H  0.85186456  0.61525297  0.22830365     0.25900
O2484       O  0.90649051  0.84627899  0.10298462    -0.80400
O2485       O  0.55839892  0.85382770  0.15262851    -0.80400
O2486       O  0.03376258  0.80927267  0.10045798    -0.80400
O2487       O  0.94586723  0.83784337  0.17346931    -0.80400
O2488       O  0.57579167  0.85354618  0.10943458    -0.80500
O2489       O  0.92377607  0.82655249  0.14147639    -0.80400
O2490       O  0.50802454  0.81569554  0.15101302    -0.80400
O2491       O  0.95555456  0.80676829  0.10056234    -0.80400
C2492       C  0.92070492  0.81422223  0.09675769     1.09300
C2493       C  0.54121247  0.82237596  0.15827224     1.09200
C2494       C  0.56825336  0.82070907  0.10099338     1.09300
C2495       C  0.92624231  0.81680357  0.16102573     1.09200
O2496       O  0.88416776  0.89709504  0.13649877    -0.80400
O2497       O  0.53817601  0.92785077  0.10405936    -0.80500
O2498       O  0.95211826  0.88314261  0.07885438    -0.80400
O2499       O  0.50543163  0.89357202  0.16951768    -0.80400
O2500       O  0.52267075  0.93290220  0.14450527    -0.80400
O2501       O  0.93420023  0.92293055  0.10445738    -0.80400
O2502       O  0.93768691  0.90885450  0.15370510    -0.80400
O2503       O  0.03231950  0.88365681  0.07902307    -0.80400
Co2504     Co  0.93310509  0.87850390  0.12482020     1.51500
Co2505     Co  0.54520240  0.89114451  0.12751609     1.51700
Co2506     Co  0.99295975  0.84653620  0.09152952     1.51600
Co2507     Co  0.97248160  0.86006276  0.15006718     1.51500
O2508       O  0.99105226  0.87087054  0.12073991    -1.42300
C2509       C  0.90116671  0.91421418  0.15185089     1.09200
C2510       C  0.54557679  0.91616143  0.08573130     1.09300
C2511       C  0.93384861  0.91381299  0.08485018     1.09300
C2512       C  0.51612080  0.92726110  0.16359351     1.09200
C2513       C  0.89311730  0.48223971  0.19927709    -0.02100
C2514       C  0.86118273  0.50626090  0.19423810     0.07600
C2515       C  0.83811491  0.49624420  0.17636729    -0.02200
C2516       C  0.84913774  0.96499668  0.16269533    -0.02200
C2517       C  0.88237262  0.94210412  0.16738012     0.07700
C2518       C  0.90116952  0.94883145  0.18714727    -0.02400
Br2519     Br  0.93536217  0.91067385  0.19969311    -0.01000
Br2520     Br  0.92721025  0.49506500  0.22281178    -0.01000
Br2521     Br  0.81747031  0.95300584  0.13835707    -0.01000
Br2522     Br  0.79135894  0.52529891  0.17066091    -0.01000
C2523       C  0.85825319  0.74524770  0.18677021    -0.02100
C2524       C  0.88296628  0.71248419  0.18948220     0.07600
C2525       C  0.91948359  0.71254565  0.18003157    -0.02200
C2526       C  0.93087076  0.74474309  0.16792395    -0.02200
C2527       C  0.90920368  0.77980091  0.16841922     0.07700
C2528       C  0.87212118  0.77956886  0.17717036    -0.02400
Br2529     Br  0.84084193  0.82638792  0.17622596    -0.01000
Br2530     Br  0.80662374  0.74404031  0.19776118    -0.01000
Br2531     Br  0.97433852  0.73860479  0.14964080    -0.01000
Br2532     Br  0.95628193  0.67131334  0.18579232    -0.01000
C2533       C  0.55853595  0.96066192  0.18956117    -0.02100
C2534       C  0.52342518  0.95986014  0.17827692     0.07600
C2535       C  0.50038121  0.99414600  0.17735750    -0.02200
C2536       C  0.50854365  0.52583507  0.19089573    -0.02200
C2537       C  0.54329438  0.52607601  0.20263944     0.07700
C2538       C  0.56970629  0.99496979  0.20012202    -0.02400
Br2539     Br  0.62275359  0.00190853  0.20842905    -0.01000
Br2540     Br  0.59300704  0.91617414  0.18900399    -0.01000
Br2541     Br  0.47255095  0.56879216  0.19284134    -0.01000
Br2542     Br  0.96071860  0.50011383  0.15599047    -0.01000
C2543       C  0.53399159  0.79058737  0.19388713    -0.02100
C2544       C  0.55604903  0.79535811  0.17536874     0.07600
C2545       C  0.58714305  0.76924429  0.17226050    -0.02200
C2546       C  0.59561457  0.73958336  0.18738778    -0.02200
C2547       C  0.56941413  0.73162665  0.20387109     0.07700
C2548       C  0.53744172  0.75663425  0.20629673    -0.02400
Br2549     Br  0.49767874  0.74452914  0.22646468    -0.01000
Br2550     Br  0.50577067  0.83353475  0.20558393    -0.01000
Br2551     Br  0.64295223  0.71001479  0.18551920    -0.01000
Br2552     Br  0.61716711  0.77275789  0.14712826    -0.01000
C2553       C  0.54020809  0.47453786  0.80394805    -0.02100
C2554       C  0.58023856  0.96946621  0.80290066     0.07600
C2555       C  0.60456006  0.98692924  0.81816441    -0.02200
C2556       C  0.58866441  0.51113235  0.83388264    -0.02200
C2557       C  0.54821575  0.51530542  0.83526305     0.07700
C2558       C  0.52433465  0.49402211  0.82120974    -0.02400
Br2559     Br  0.97044782  0.48756163  0.82612127    -0.01000
Br2560     Br  0.00709404  0.95377703  0.78184494    -0.01000
Br2561     Br  0.62216746  0.53608982  0.85432188    -0.01000
Br2562     Br  0.65947362  0.97780128  0.81733095    -0.01000
C2563       C  0.59497022  0.75324824  0.83871356    -0.02100
C2564       C  0.57634296  0.71894138  0.83195851     0.07600
C2565       C  0.58048704  0.70701373  0.81066872    -0.02200
C2566       C  0.59304794  0.73411460  0.79539152    -0.02200
C2567       C  0.60989070  0.76996180  0.80185061     0.07700
C2568       C  0.61407934  0.77715152  0.82391275    -0.02400
Br2569     Br  0.64450570  0.82071052  0.83394532    -0.01000
Br2570     Br  0.59569567  0.76627409  0.86836643    -0.01000
Br2571     Br  0.08056591  0.72383643  0.76605026    -0.01000
Br2572     Br  0.06691539  0.65448360  0.80184442    -0.01000
C2573       C  0.91741971  0.55975426  0.80309527    -0.02100
C2574       C  0.90787221  0.56341932  0.82479224     0.07600
C2575       C  0.87748459  0.03962293  0.83232271    -0.02200
C2576       C  0.86246214  0.00871163  0.81967531    -0.02200
C2577       C  0.87870405  0.99994889  0.79979840     0.07700
C2578       C  0.90543466  0.52680544  0.79131100    -0.02400
Br2579     Br  0.92961653  0.51695195  0.76446369    -0.01000
Br2580     Br  0.94684747  0.60000302  0.78903937    -0.01000
Br2581     Br  0.81963536  0.97804153  0.82953806    -0.01000
Br2582     Br  0.85480256  0.04954253  0.85933984    -0.01000
C2583       C  0.95034418  0.74262091  0.81322415    -0.02100
C2584       C  0.92994251  0.72070340  0.82854754     0.07600
C2585       C  0.89333918  0.73512532  0.83488091    -0.02200
C2586       C  0.87853727  0.77068236  0.82637386    -0.02200
C2587       C  0.90057618  0.79300253  0.81217361     0.07700
C2588       C  0.93755864  0.77988279  0.80682459    -0.02400
Br2589     Br  0.96922304  0.81195717  0.78870292    -0.01000
Br2590     Br  0.99124632  0.72025986  0.79711258    -0.01000
Br2591     Br  0.82713438  0.78809305  0.83293159    -0.01000
Br2592     Br  0.86069994  0.70378892  0.85264628    -0.01000
C2593       C  0.66617315  0.79394194  0.07746603    -0.02100
C2594       C  0.65400097  0.77583446  0.05839001     0.07600
C2595       C  0.61902737  0.75515105  0.06021237    -0.02200
C2596       C  0.59073548  0.76793813  0.07472552    -0.02200
C2597       C  0.59927352  0.79890902  0.08916339     0.07700
C2598       C  0.63867879  0.80946406  0.09137745    -0.02400
Br2599     Br  0.65778436  0.84193875  0.11415268    -0.01000
Br2600     Br  0.71469619  0.77886329  0.09043463    -0.01000
Br2601     Br  0.54180310  0.74132385  0.07442512    -0.01000
Br2602     Br  0.61500015  0.70339443  0.04797943    -0.01000
C2603       C  0.83946149  0.76111819  0.07043079    -0.02100
C2604       C  0.84632862  0.77329852  0.04942341     0.07600
C2605       C  0.88243844  0.78977452  0.04438932    -0.02200
C2606       C  0.91045177  0.79355352  0.06022880    -0.02200
C2607       C  0.89948881  0.79075713  0.08144453     0.07700
C2608       C  0.86434797  0.77340526  0.08670659    -0.02400
Br2609     Br  0.85076088  0.76653745  0.11593882    -0.01000
Br2610     Br  0.79785544  0.72599135  0.07674055    -0.01000
Br2611     Br  0.96354346  0.80224356  0.05284747    -0.01000
Br2612     Br  0.89351112  0.81109494  0.01685268    -0.01000
C2613       C  0.60770991  0.67817813  0.92686971    -0.02100
C2614       C  0.57593270  0.70289132  0.92268928     0.07600
C2615       C  0.57771372  0.74247944  0.92897526    -0.02200
C2616       C  0.61017223  0.75648187  0.94033884    -0.02200
C2617       C  0.63943905  0.73021065  0.94713831     0.07700
C2618       C  0.63821964  0.69094960  0.94001788    -0.02400
Br2619     Br  0.67793086  0.65412836  0.94843610    -0.01000
Br2620     Br  0.61114932  0.62821345  0.91286352    -0.01000
Br2621     Br  0.61497469  0.81166396  0.94631721    -0.01000
Br2622     Br  0.53578701  0.77748928  0.92187787    -0.01000
C2623       C  0.86239294  0.69929251  0.94282702    -0.02100
C2624       C  0.84253988  0.73525462  0.94175838     0.07600
C2625       C  0.85584390  0.76423369  0.92749431    -0.02200
C2626       C  0.88805399  0.75649657  0.91431078    -0.02200
C2627       C  0.90995818  0.72186912  0.91729061     0.07700
C2628       C  0.89827148  0.69528162  0.93316620    -0.02400
Br2629     Br  0.93305128  0.65533239  0.94390967    -0.01000
Br2630     Br  0.84241649  0.65617630  0.95921509    -0.01000
Br2631     Br  0.90143897  0.79276764  0.89229247    -0.01000
Br2632     Br  0.83029156  0.81439325  0.92611528    -0.01000
C2633       C  0.59679034  0.96778079  0.04125911    -0.02100
C2634       C  0.63568119  0.96022198  0.04740885     0.07600
C2635       C  0.64195564  0.95789335  0.06951080    -0.02200
C2636       C  0.61214907  0.94404642  0.08246773    -0.02200
C2637       C  0.57514860  0.93720742  0.07358278     0.07700
C2638       C  0.56663149  0.95347463  0.05372861    -0.02400
Br2639     Br  0.51393267  0.96207121  0.04538673    -0.01000
Br2640     Br  0.58460726  0.00665718  0.01992092    -0.01000
Br2641     Br  0.62181554  0.93781998  0.11239926    -0.01000
Br2642     Br  0.68320040  0.98720841  0.08273712    -0.01000
C2643       C  0.84712814  0.97268244  0.06267281    -0.02100
C2644       C  0.84177471  0.95491422  0.04269899     0.07600
C2645       C  0.87078865  0.92973469  0.03514974    -0.02200
C2646       C  0.90349183  0.92067123  0.04779935    -0.02200
C2647       C  0.90652366  0.93396801  0.06915868     0.07700
C2648       C  0.87929566  0.96268720  0.07572871    -0.02400
Br2649     Br  0.88722358  0.99187929  0.10153011    -0.01000
Br2650     Br  0.81075486  0.01193343  0.07183161    -0.01000
Br2651     Br  0.94549503  0.89421490  0.03405894    -0.01000
Br2652     Br  0.86538591  0.90720831  0.00716719    -0.01000
C2653       C  0.60873164  0.54032985  0.95386316    -0.02100
C2654       C  0.62479103  0.50554842  0.94586608     0.07600
C2655       C  0.60750729  0.98732654  0.92827524    -0.02200
C2656       C  0.57543613  0.50492746  0.91789379    -0.02200
C2657       C  0.55965705  0.54096746  0.92541671     0.07700
C2658       C  0.57543962  0.55692187  0.94452457    -0.02400
Br2659     Br  0.55263758  0.60112762  0.95921862    -0.01000
Br2660     Br  0.63384704  0.56647805  0.97742846    -0.01000
Br2661     Br  0.55286609  0.97724843  0.89419346    -0.01000
Br2662     Br  0.62812825  0.93793998  0.91861292    -0.01000
C2663       C  0.82612329  0.55424478  0.92980089    -0.02100
C2664       C  0.82643464  0.51637659  0.93865632     0.07600
C2665       C  0.85501268  0.98926894  0.93255777    -0.02200
C2666       C  0.88485021  0.50067889  0.91889801    -0.02200
C2667       C  0.88689079  0.53984293  0.91164854     0.07700
C2668       C  0.85618048  0.56600857  0.91642326    -0.02400
Br2669     Br  0.85352065  0.61765819  0.90387237    -0.01000
Br2670     Br  0.78413251  0.58992717  0.93586451    -0.01000
Br2671     Br  0.92324936  0.96241327  0.91103860    -0.01000
Br2672     Br  0.85319719  0.93627890  0.94321271    -0.01000
C2673       C  0.63696364  0.00672693  0.68754773    -0.02100
C2674       C  0.66114728  0.98761344  0.70242434     0.07600
C2675       C  0.69887952  0.50134507  0.70581041    -0.02200
C2676       C  0.71256770  0.53349920  0.69420190    -0.02200
C2677       C  0.68955398  0.55046883  0.67774348     0.07700
C2678       C  0.65124223  0.53775045  0.67510478    -0.02400
Br2679     Br  0.61677994  0.06674020  0.65675536    -0.01000
Br2680     Br  0.58361359  0.99194354  0.68521127    -0.01000
Br2681     Br  0.76174270  0.55526047  0.70262692    -0.01000
Br2682     Br  0.73118475  0.47673583  0.72726083    -0.01000
C2683       C  0.70792264  0.75469450  0.67063070    -0.02100
C2684       C  0.68286322  0.72200535  0.66884022     0.07600
C2685       C  0.64766328  0.72245806  0.67986799    -0.02200
C2686       C  0.63908565  0.75370125  0.69359583    -0.02200
C2687       C  0.66630338  0.78358894  0.69726688     0.07700
C2688       C  0.70032028  0.78455623  0.68532285    -0.02400
Br2689     Br  0.73728409  0.82614512  0.68945441    -0.01000
Br2690     Br  0.75235133  0.76009993  0.65256567    -0.01000
Br2691     Br  0.58975010  0.75577537  0.70743389    -0.01000
Br2692     Br  0.61188826  0.67952420  0.67756800    -0.01000
C2693       C  0.85980300  0.53189742  0.67692809    -0.02100
C2694       C  0.82724813  0.53081487  0.66321952     0.07600
C2695       C  0.80317476  0.49722772  0.66370185    -0.02200
C2696       C  0.80826224  0.46847376  0.67956972    -0.02200
C2697       C  0.83952709  0.97094520  0.69402886     0.07700
C2698       C  0.86681366  0.00106060  0.69135619    -0.02400
Br2699     Br  0.91409391  0.00010848  0.70769036    -0.01000
Br2700     Br  0.89296888  0.57714077  0.67825432    -0.01000
Br2701     Br  0.77077967  0.42711692  0.68198588    -0.01000
Br2702     Br  0.76201483  0.49062674  0.64307278    -0.01000
C2703       C  0.80227454  0.71318443  0.69964324    -0.02100
C2704       C  0.82875356  0.70164028  0.68403790     0.07600
C2705       C  0.86477746  0.72007281  0.68267965    -0.02200
C2706       C  0.87329542  0.75190280  0.69592565    -0.02200
C2707       C  0.84448935  0.76731197  0.70916650     0.07700
C2708       C  0.80925429  0.74722097  0.71137665    -0.02400
Br2709     Br  0.77106069  0.76536662  0.73118833    -0.01000
Br2710     Br  0.75708305  0.68239507  0.70571638    -0.01000
Br2711     Br  0.92480254  0.77286506  0.69674878    -0.01000
Br2712     Br  0.90316536  0.69979114  0.66363185    -0.01000
C2713       C  0.65144495  0.94053650  0.30040162    -0.02100
C2714       C  0.65930565  0.94357753  0.32235149     0.07600
C2715       C  0.64829486  0.97887489  0.33260734    -0.02200
C2716       C  0.62888491  0.50885205  0.32121739    -0.02200
C2717       C  0.62803326  0.50837667  0.29885131     0.07700
C2718       C  0.64090697  0.97394065  0.28859678    -0.02400
Br2719     Br  0.64864283  0.97244277  0.25853830    -0.01000
Br2720     Br  0.65232919  0.89061853  0.28608124    -0.01000
Br2721     Br  0.60199096  0.54941587  0.33655697    -0.01000
Br2722     Br  0.66251569  0.48963226  0.36151424    -0.01000
C2723       C  0.67655641  0.77034484  0.31364936    -0.02100
C2724       C  0.65872508  0.77838423  0.33326810     0.06000
C2725       C  0.62923683  0.75284992  0.34007836    -0.02200
C2726       C  0.61718220  0.72136416  0.32697165    -0.02200
C2727       C  0.63633730  0.71350063  0.30783306     0.07700
C2728       C  0.66761734  0.73666842  0.30203400    -0.02400
Br2729     Br  0.69734713  0.72267070  0.27741859    -0.01000
Br2730     Br  0.70857656  0.80792137  0.30013899    -0.01000
Br2731     Br  0.57427868  0.68910024  0.33493658    -0.01000
Br2732     Br  0.60573988  0.75974610  0.36724582    -0.01000
C2733       C  0.84201400  0.98008674  0.33068698    -0.02100
C2734       C  0.80637283  0.96047555  0.32832063     0.07600
C2735       C  0.78121806  0.97267626  0.31181431    -0.02200
C2736       C  0.78705440  0.50767621  0.30107719    -0.02200
C2737       C  0.82322307  0.52538450  0.30216929     0.07700
C2738       C  0.85100086  0.51155613  0.31694152    -0.02400
Br2739     Br  0.90125438  0.53525595  0.31784078    -0.01000
Br2740     Br  0.87940403  0.96270183  0.35143473    -0.01000
Br2741     Br  0.74692275  0.52858129  0.28271282    -0.01000
Br2742     Br  0.74949915  0.93581789  0.29729722    -0.01000
C2743       C  0.83808238  0.76488737  0.32640897    -0.02100
C2744       C  0.81314970  0.79496186  0.31832458     0.07600
C2745       C  0.80583574  0.79547210  0.29633394    -0.02200
C2746       C  0.81286840  0.76167910  0.28419330    -0.02200
C2747       C  0.83537722  0.73056985  0.29261181     0.07700
C2748       C  0.85085118  0.73438812  0.31314542    -0.02400
Br2749     Br  0.89069861  0.69848711  0.32276952    -0.01000
Br2750     Br  0.85755951  0.76487473  0.35517754    -0.01000
Br2751     Br  0.78951355  0.75791936  0.25644560    -0.01000
Br2752     Br  0.79241287  0.84341038  0.28185252    -0.01000
C2753       C  0.61390141  0.69935809  0.56890416    -0.02100
C2754       C  0.61727370  0.73221731  0.55572130     0.07600
C2755       C  0.65115440  0.75536785  0.55769949    -0.02200
C2756       C  0.68231182  0.74223246  0.57073501    -0.02200
C2757       C  0.67658148  0.71142168  0.58522831     0.07700
C2758       C  0.63966164  0.69421133  0.58573889    -0.02400
Br2759     Br  0.61775954  0.67489942  0.61137968    -0.01000
Br2760     Br  0.57571063  0.65947035  0.56375570    -0.01000
Br2761     Br  0.73218283  0.76637461  0.56905749    -0.01000
Br2762     Br  0.65554257  0.80375584  0.54220888    -0.01000
C2763       C  0.89850997  0.75803553  0.57034026    -0.02100
C2764       C  0.91193160  0.73938416  0.55189184     0.07600
C2765       C  0.89001536  0.70835459  0.54336619    -0.02200
C2766       C  0.85542369  0.69693066  0.55283806    -0.02200
C2767       C  0.84693134  0.70870596  0.57366416     0.07700
C2768       C  0.86733775  0.74170260  0.58178833    -0.02400
Br2769     Br  0.85069935  0.76754920  0.60726066    -0.01000
Br2770     Br  0.92175913  0.80657286  0.57927652    -0.01000
Br2771     Br  0.81641545  0.67393703  0.53503234    -0.01000
Br2772     Br  0.90817681  0.67920393  0.51928164    -0.01000
C2773       C  0.63933530  0.73423343  0.43743926    -0.02100
C2774       C  0.60888205  0.75692400  0.44603489     0.07600
C2775       C  0.60549576  0.79627606  0.43998293    -0.02200
C2776       C  0.62973672  0.81132830  0.42464612    -0.02200
C2777       C  0.66469476  0.79264072  0.41963897     0.07700
C2778       C  0.66846135  0.75267281  0.42519034    -0.02400
Br2779     Br  0.71166315  0.72309115  0.41499110    -0.01000
Br2780     Br  0.64056816  0.67855162  0.44214885    -0.01000
Br2781     Br  0.60325465  0.84051322  0.40353616    -0.01000
Br2782     Br  0.56693171  0.83058476  0.45192680    -0.01000
C2783       C  0.91610088  0.79937978  0.43094172    -0.02100
C2784       C  0.91021437  0.77296015  0.44776881     0.07600
C2785       C  0.87208516  0.75927364  0.45119926    -0.02200
C2786       C  0.84035759  0.77614307  0.44017596    -0.02200
C2787       C  0.84662449  0.80119552  0.42291357     0.07700
C2788       C  0.88532412  0.80950311  0.41724394    -0.02400
Br2789     Br  0.89759499  0.83701621  0.39157214    -0.01000
Br2790     Br  0.96444445  0.82690032  0.42812118    -0.01000
Br2791     Br  0.78845639  0.76550561  0.44891995    -0.01000
Br2792     Br  0.86279419  0.71777812  0.47114949    -0.01000
C2793       C  0.65786325  0.59061655  0.55728034    -0.02100
C2794       C  0.65884201  0.57527122  0.57818344     0.07600
C2795       C  0.63547682  0.54267042  0.58274261    -0.02200
C2796       C  0.60919364  0.52812303  0.56737637    -0.02200
C2797       C  0.60624397  0.54591595  0.54721178     0.07700
C2798       C  0.63063975  0.57726952  0.54233705    -0.02400
Br2799     Br  0.62513158  0.60386807  0.51536699    -0.01000
Br2800     Br  0.69531259  0.62722779  0.54733051    -0.01000
Br2801     Br  0.57715466  0.48383381  0.57388061    -0.01000
Br2802     Br  0.64180728  0.51597824  0.60938841    -0.01000
C2803       C  0.91173733  0.52236733  0.56701244    -0.02100
C2804       C  0.90665490  0.53693165  0.54616204     0.07600
C2805       C  0.87263950  0.55780042  0.54085287    -0.02200
C2806       C  0.84458618  0.56361041  0.55618515    -0.02200
C2807       C  0.85385556  0.55687124  0.57758187     0.07700
C2808       C  0.88685115  0.53506177  0.58305126    -0.02400
Br2809     Br  0.89689180  0.02184273  0.61223298    -0.01000
Br2810     Br  0.95233954  0.98533842  0.57363978    -0.01000
Br2811     Br  0.79337934  0.57977339  0.54757756    -0.01000
Br2812     Br  0.86518237  0.58248715  0.51355417    -0.01000
C2813       C  0.63751084  0.00072596  0.43734647    -0.02100
C2814       C  0.60020416  0.98543817  0.44034888     0.07600
C2815       C  0.58741748  0.95506315  0.42677998    -0.02200
C2816       C  0.61107887  0.94183166  0.41047168    -0.02200
C2817       C  0.65087392  0.94875073  0.41147039     0.07700
C2818       C  0.66375924  0.98090026  0.42407662    -0.02400
Br2819     Br  0.71591085  0.00054419  0.42276871    -0.01000
Br2820     Br  0.65211736  0.54936404  0.45081722    -0.01000
Br2821     Br  0.58719347  0.92756870  0.38392648    -0.01000
Br2822     Br  0.53902070  0.92863157  0.43069800    -0.01000
C2823       C  0.90793247  0.94637231  0.44086132    -0.02100
C2824       C  0.91082953  0.98725733  0.43923011     0.07600
C2825       C  0.88498475  0.00783181  0.42578843    -0.02200
C2826       C  0.85741124  0.98705587  0.41347080    -0.02200
C2827       C  0.85367489  0.94610436  0.41595690     0.07700
C2828       C  0.87670633  0.92725351  0.43143787    -0.02400
Br2829     Br  0.85753784  0.88288484  0.44635615    -0.01000
Br2830     Br  0.94358691  0.91694376  0.45862035    -0.01000
Br2831     Br  0.82269456  0.01488420  0.39477913    -0.01000
Br2832     Br  0.88626141  0.06417447  0.42520208    -0.01000
loop_ 
_geom_bond_atom_site_label_1 
_geom_bond_atom_site_label_2 
_geom_bond_distance 
_geom_bond_site_symmetry_2 
_ccdc_geom_bond_type 
N1            C6   1.351       .  A
N1          C713   1.350       .  A
N1           H33   1.042       .  S
N2           C10   1.348       .  A
N2         C1425   1.347   1_455  A
N3            C7   1.356       .  A
N3          C716   1.354       .  A
N3           H34   1.041       .  S
N4           C12   1.347       .  A
N4         C1427   1.350   1_455  A
C5          N709   1.350       .  A
C5           C13   1.386   1_545  A
C5           C21   1.409       .  A
C6           C22   1.418       .  A
C6           C14   1.390       .  A
C7           C15   1.384   1_545  A
C7           C24   1.419       .  A
C8          N711   1.354       .  A
C8           C23   1.427       .  A
C8           C16   1.391       .  A
C9         N1418   1.347       .  A
C9           C21   1.407       .  A
C9           C17   1.387       .  A
C10          C24   1.407       .  A
C10          C18   1.385       .  A
C11        N1420   1.350       .  A
C11          C19   1.384       .  A
C11          C22   1.409       .  A
C12          C20   1.390       .  A
C12          C23   1.416       .  A
C13         C722   1.374       .  A
C13          H25   1.082       .  S
C14         C721   1.374       .  A
C14          H26   1.082       .  S
C15         C724   1.384       .  A
C15          H27   1.082       .  S
C16         C723   1.384       .  A
C16          H28   1.082       .  S
C17        C1434   1.372       .  A
C17          H29   1.082       .  S
C18        C1433   1.372   1_455  A
C18          H30   1.080       .  S
C19        C1436   1.378       .  A
C19          H31   1.082       .  S
C20        C1435   1.378   1_455  A
C20          H32   1.082       .  S
C21         C680   1.486       .  S
C22         C700   1.492       .  S
C23         C690   1.502       .  S
C24         C673   1.497       .  S
N35          C40   1.357       .  A
N35          C39   1.357       .  A
N35          H67   1.033       .  S
N36          C44   1.356       .  A
N36        C1459   1.353       .  A
N37          C42   1.354       .  A
N37          C41   1.351       .  A
N37          H68   1.042       .  S
N38          C46   1.355       .  A
N38        C1461   1.351       .  A
C39          C47   1.390       .  A
C39          C55   1.429       .  A
C40          C56   1.420       .  A
C40          C48   1.384       .  A
C41          C49   1.382       .  A
C41          C58   1.406       .  A
C42          C57   1.421       .  A
C42          C50   1.391       .  A
C43        N1452   1.353       .  A
C43          C55   1.435       .  A
C43          C51   1.392       .  A
C44          C58   1.416       .  A
C44          C52   1.380       .  A
C45        N1454   1.351       .  A
C45          C53   1.386       .  A
C45          C56   1.425       .  A
C46          C54   1.388       .  A
C46          C57   1.428       .  A
C47          C48   1.369       .  A
C47          H59   1.081       .  S
C48          H60   1.080       .  S
C49          C50   1.376       .  A
C49          H61   1.082       .  S
C50          H62   1.082       .  S
C51        C1468   1.378   1_455  A
C51          H63   1.081       .  S
C52        C1467   1.378       .  A
C52          H64   1.081       .  S
C53        C1470   1.383   1_455  A
C53          H65   1.082       .  S
C54        C1469   1.383       .  A
C54          H66   1.082       .  S
C55         C630   1.509       .  S
C56         C650   1.501       .  S
C57         C660   1.515       .  S
C58         C640   1.504       .  S
O69          C77   1.251       .  A
O69         Co89   1.949       .  S
O70          C78   1.277       .  A
O70         Co90   1.952       .  S
O71          C79   1.278       .  A
O71         Co91   2.053       .  S
O72          C80   1.263       .  A
O72         Co92   2.048       .  S
O73          C79   1.261       .  A
O73         Co90   1.990       .  S
O74          C80   1.240       .  A
O74         Co89   1.951       .  S
O75          C78   1.287       .  A
O75         Co92   2.062       .  S
O76          C77   1.281       .  A
O76         Co91   2.055       .  S
C77         C663   1.500       .  S
C78         C600   1.503       .  S
C79         C653   1.507       .  S
C80         C620   1.506       .  S
O81          C94   1.283       .  A
O81         Co89   2.062       .  S
O82          C95   1.272       .  A
O82         Co90   2.028       .  S
O83          C96   1.256       .  A
O83         Co91   1.978       .  S
O84          C97   1.260       .  A
O84         Co92   1.925       .  S
O85          C97   1.285       .  A
O85         Co90   2.092       .  S
O86          C96   1.267       .  A
O86         Co89   2.023       .  S
O87          C94   1.263       .  A
O87         Co92   1.962       .  S
O88          C95   1.250       .  A
O88         Co91   1.963       .  S
Co89         O93   2.043       .  S
Co90         O93   2.060       .  S
Co91         O93   2.063       .  S
Co92         O93   2.036       .  S
C94         C610   1.497       .  S
C95         C693   1.503       .  S
C96         C703   1.493       .  S
C97         C590   1.509       .  S
O98         C106   1.258       .  A
O98        Co118   1.976       .  S
O99         C107   1.277       .  A
O99        Co119   1.923       .  S
O100        C108   1.271       .  A
O100       Co120   2.027       .  S
O101        C109   1.238       .  A
O101       Co121   1.953       .  S
O102        C108   1.263       .  A
O102       Co119   1.990       .  S
O103        C109   1.258       .  A
O103       Co118   2.000       .  S
O104        C107   1.289       .  A
O104       Co121   2.042       .  S
O105        C106   1.274       .  A
O105       Co120   2.043       .  S
C106        C643   1.517       .  S
C107        C560   1.488       .  S
C108        C633   1.497       .  S
C109        C580   1.461       .  S
O110        C123   1.283       .  A
O110       Co118   2.061       .  S
O111        C124   1.270       .  A
O111       Co119   2.044       .  S
O112        C125   1.248       .  A
O112       Co120   1.952       .  S
O113        C126   1.234       .  A
O113       Co121   1.935       .  S
O114        C126   1.276       .  A
O114       Co119   2.074       .  S
O115        C125   1.266       .  A
O115       Co118   2.011       .  S
O116        C123   1.254       .  A
O116       Co121   1.939       .  S
O117        C124   1.251       .  A
O117       Co120   1.966       .  S
Co118       O122   2.089       .  S
Co119       O122   2.014       .  S
Co120       O122   2.038       .  S
Co121       O122   2.039       .  S
C123        C570   1.499       .  S
C124        C670   1.498       .  S
C125        C683   1.461       .  S
C126        C553   1.493       .  S
N127        C132   1.359   1_556  A
N127        C131   1.357       .  A
N127        H159   1.041       .  S
N128        C135   1.346       .  A
N128        C136   1.350       .  A
N129        C134   1.349   1_556  A
N129        C133   1.352       .  A
N129        H160   1.043       .  S
N130        C137   1.353       .  A
N130        C138   1.352       .  A
C131        C139   1.388       .  A
C131        C147   1.424       .  A
C132        C148   1.421       .  A
C132        C140   1.385       .  A
C133        C141   1.382       .  A
C133        C150   1.403       .  A
C134        C149   1.414       .  A
C134        C142   1.390       .  A
C135        C147   1.415       .  A
C135        C851   1.390       .  A
C136        C150   1.404       .  A
C136        C852   1.382       .  A
C137        C145   1.385       .  A
C137        C148   1.417       .  A
C138        C146   1.387       .  A
C138        C149   1.420       .  A
C139        C140   1.377   1_556  A
C139        H151   1.082       .  S
C140        H152   1.082       .  S
C141        C142   1.376   1_556  A
C141        H153   1.082       .  S
C142        H154   1.082       .  S
C143        C144   1.375       .  A
C143        C843   1.390   1_545  A
C143        H155   1.082       .  S
C144        C844   1.382   1_545  A
C144        H156   1.082       .  S
C145        C146   1.380       .  A
C145        H157   1.082       .  S
C146        H158   1.081       .  S
C147       C1248   1.495       .  S
C148        C520   1.511       .  S
C149        C510   1.528       .  S
C150       C1238   1.493       .  S
N161        C166   1.366   1_556  A
N161        C165   1.354       .  A
N161        H193   1.036       .  S
N162        C169   1.354       .  A
N162        C170   1.360       .  A
N163        C168   1.352   1_556  A
N163        C167   1.349       .  A
N163        H194   1.042       .  S
N164        C171   1.344       .  A
N164        C172   1.343       .  A
C165        C173   1.389       .  A
C165        C181   1.436       .  A
C166        C182   1.440       .  A
C166        C174   1.386       .  A
C167        C175   1.395       .  A
C167        C184   1.424       .  A
C168        C183   1.402       .  A
C168        C176   1.379       .  A
C169        C181   1.433       .  A
C169        C177   1.390       .  A
C170        C184   1.427       .  A
C170        C178   1.384       .  A
C171        C179   1.387       .  A
C171        C182   1.407       .  A
C172        C180   1.382       .  A
C172        C183   1.395       .  A
C173        C174   1.378   1_556  A
C173        H185   1.081       .  S
C174        H186   1.080       .  S
C175        C176   1.367   1_556  A
C175        H187   1.078       .  S
C176        H188   1.082       .  S
C177        C178   1.379       .  A
C177        H189   1.082       .  S
C178        H190   1.082       .  S
C179        C180   1.377       .  A
C179        H191   1.080       .  S
C180        H192   1.082       .  S
C181        C493   1.507       .  S
C182        C470   1.542       .  S
C183        C480   1.484       .  S
C184        C500   1.509       .  S
O195        C203   1.246       .  A
O195      Co1631   1.966   1_455  S
O196        C204   1.264       .  A
O196      Co1632   1.975       .  S
O197        C205   1.270   1_655  A
O197      Co1633   1.998       .  S
O198        C206   1.238       .  A
O198      Co1634   1.965   1_455  S
O199        C205   1.264       .  A
O199      Co1632   1.973       .  S
O200        C206   1.255       .  A
O200      Co1631   2.021   1_455  S
O201        C204   1.283       .  A
O201      Co1634   2.044   1_455  S
O202        C203   1.254       .  A
O202      Co1633   2.003   1_455  S
C203        C533   1.514       .  S
C204        C440   1.491       .  S
C205        C433   1.479       .  S
C206        C490   1.486       .  S
O207        C220   1.276       .  A
O207       Co215   2.003       .  S
O208        C221   1.265       .  A
O208       Co216   2.002       .  S
O209        C222   1.271       .  A
O209       Co217   1.905       .  S
O210        C223   1.255       .  A
O210       Co218   1.983       .  S
O211        C223   1.269       .  A
O211       Co216   2.034       .  S
O212        C222   1.291       .  A
O212       Co215   2.069       .  S
O213        C220   1.285       .  A
O213       Co218   1.983       .  S
O214        C221   1.269       .  A
O214       Co217   2.015       .  S
Co215      O1611   1.966       .  S
Co215      O1616   2.021       .  S
Co215       O219   2.204       .  S
Co216      O1612   1.975       .  S
Co216      O1615   1.973       .  S
Co216       O219   2.077       .  S
Co217      O1613   1.998       .  S
Co217      O1618   2.003       .  S
Co217       O219   1.979       .  S
Co218      O1614   1.965       .  S
Co218      O1617   2.044       .  S
Co218       O219   1.997       .  S
C220        C503   1.498       .  S
C221        C450   1.519       .  S
C222        C543   1.496       .  S
C223        C460   1.510       .  S
N224        C229   1.355       .  A
N224        C228   1.352       .  A
N224        H256   1.040       .  S
N225        C232   1.347       .  A
N225        C233   1.354       .  A
N226        C231   1.348       .  A
N226        C230   1.356       .  A
N226        H257   1.041       .  S
N227        C234   1.352       .  A
N227        C235   1.349       .  A
C228        C236   1.389       .  A
C228        C244   1.419       .  A
C229        C245   1.413       .  A
C229        C237   1.384       .  A
C230        C238   1.385       .  A
C230        C247   1.414       .  A
C231        C246   1.414       .  A
C231        C239   1.391       .  A
C232        C244   1.417       .  A
C232        C240   1.388       .  A
C233        C247   1.417       .  A
C233        C241   1.384       .  A
C234        C242   1.386       .  A
C234        C245   1.413       .  A
C235        C243   1.387       .  A
C235        C246   1.411       .  A
C236        C237   1.378       .  A
C236        H248   1.082       .  S
C237        H249   1.082       .  S
C238        C239   1.369       .  A
C238       H1666   1.082       .  S
C239       H1667   1.080       .  S
C240        C241   1.379       .  A
C240        H252   1.082       .  S
C241        H253   1.082       .  S
C242        C243   1.373       .  A
C242        H962   1.082       .  S
C243        H963   1.082       .  S
C244        C563   1.491       .  S
C245        C550   1.495       .  S
C246        C430   1.478       .  S
C247        C443   1.514       .  S
H250       C1654   1.082       .  S
H251       C1655   1.080       .  S
H254        C950   1.082       .  S
H255        C951   1.082   1_545  S
N258        C263   1.355       .  A
N258        C262   1.352       .  A
N258        H290   1.039       .  S
N259        C266   1.351       .  A
N259        C267   1.351       .  A
N260        C265   1.358       .  A
N260        C264   1.359       .  A
N260        H291   1.039       .  S
N261        C268   1.356       .  A
N261        C269   1.356       .  A
C262        C270   1.388       .  A
C262        C278   1.416       .  A
C263        C279   1.419       .  A
C263        C271   1.387       .  A
C264        C272   1.383       .  A
C264        C281   1.422       .  A
C265        C280   1.431       .  A
C265        C273   1.388       .  A
C266        C278   1.412       .  A
C266        C274   1.387       .  A
C267        C281   1.414       .  A
C267        C275   1.389       .  A
C268        C276   1.385       .  A
C268        C279   1.424       .  A
C269        C277   1.385       .  A
C269        C280   1.422       .  A
C270        C271   1.375       .  A
C270        H282   1.081       .  S
C271        H283   1.082       .  S
C272        C273   1.378       .  A
C272        H284   1.082       .  S
C273        H285   1.076       .  S
C274        C275   1.361       .  A
C274        H286   1.082       .  S
C275        H287   1.082       .  S
C276        C277   1.373       .  A
C276        H996   1.077       .  S
C277        H997   1.082       .  S
C278        C583   1.486       .  S
C279        C573   1.509       .  S
C280        C453   1.518       .  S
C281        C463   1.498       .  S
H288        C984   1.077   1_545  S
H289        C985   1.082       .  S
N292        C297   1.349       .  A
N292        C296   1.357       .  A
N292        H324   1.042       .  S
N293        C300   1.353       .  A
N293        C301   1.348       .  A
N294        C299   1.356       .  A
N294        C298   1.353       .  A
N294        H325   1.039       .  S
N295        C302   1.355       .  A
N295        C303   1.357       .  A
C296        C304   1.389       .  A
C296        C312   1.422       .  A
C297        C313   1.412       .  A
C297        C305   1.386       .  A
C298        C306   1.386       .  A
C298        C315   1.418       .  A
C299        C314   1.423       .  A
C299        C307   1.389       .  A
C300        C312   1.415       .  A
C300        C308   1.385       .  A
C301        C315   1.414       .  A
C301        C309   1.388       .  A
C302        C310   1.387       .  A
C302        C313   1.421       .  A
C303        C311   1.387       .  A
C303        C314   1.425       .  A
C304        C305   1.382       .  A
C304        H316   1.082       .  S
C305        H317   1.082       .  S
C306        C307   1.378       .  A
C306        H318   1.082       .  S
C307        H319   1.081       .  S
C308        C309   1.377       .  A
C308       H1028   1.082   1_545  S
C309       H1029   1.083   1_545  S
C310        C311   1.372       .  A
C310        H322   1.082       .  S
C311        H323   1.081       .  S
C312        C593   1.515       .  S
C313        C603   1.493       .  S
C314        C423   1.507       .  S
C315        C413   1.493       .  S
H320       C1016   1.082       .  S
H321       C1017   1.083       .  S
N326        C331   1.358       .  A
N326        C330   1.350       .  A
N326        H358   1.041       .  S
N327        C334   1.354       .  A
N327        C335   1.358       .  A
N328        C333   1.355       .  A
N328        C332   1.357       .  A
N328        H359   1.033       .  S
N329        C336   1.349       .  A
N329        C337   1.345       .  A
C330        C338   1.388       .  A
C330        C346   1.414       .  A
C331        C347   1.419       .  A
C331        C339   1.387       .  A
C332        C340   1.389       .  A
C332        C349   1.430       .  A
C333        C348   1.427       .  A
C333        C341   1.387       .  A
C334        C346   1.426       .  A
C334        C342   1.388   1_545  A
C335        C349   1.431       .  A
C335        C343   1.387   1_545  A
C336        C344   1.383       .  A
C336        C347   1.405       .  A
C337        C345   1.391       .  A
C337        C348   1.415       .  A
C338        C339   1.377       .  A
C338        H350   1.082       .  S
C339        H351   1.082       .  S
C340        C341   1.379       .  A
C340        H352   1.081       .  S
C341        H353   1.082       .  S
C342        C343   1.370       .  A
C342       H1062   1.082       .  S
C343       H1063   1.082       .  S
C344        C345   1.369       .  A
C344        H356   1.082       .  S
C345        H357   1.082       .  S
C346        C613   1.489       .  S
C347        C623   1.501       .  S
C348        C400   1.489       .  S
C349        C390   1.517       .  S
H354       C1050   1.082       .  S
H355       C1051   1.082       .  S
O360        C368   1.263       .  A
O360       Co380   1.988       .  S
O361        C369   1.283       .  A
O361       Co381   2.081       .  S
O362       C1786   1.260       .  A
O362       Co382   1.976       .  S
O363        C371   1.262       .  A
O363       Co383   1.911       .  S
O364        C370   1.269       .  A
O364       Co381   2.024       .  S
O365        C371   1.282       .  A
O365       Co380   2.091       .  S
O366        C369   1.257       .  A
O366      Co1799   1.949   1_455  S
O367        C368   1.255       .  A
O367       Co382   1.971       .  S
C368        C483   1.453       .  S
C369        C420   1.506       .  S
C370        C473   1.510       .  S
C370       O1778   1.260       .  A
C371        C403   1.475       .  S
O372        C385   1.274       .  A
O372       Co380   1.961       .  S
O373        C386   1.255       .  A
O373       Co381   1.954       .  S
O374        C387   1.281       .  A
O374       Co382   2.042       .  S
O375        C388   1.268       .  A
O375      Co1799   2.028   1_455  S
O376        C388   1.246       .  A
O376       Co381   1.951       .  S
O377        C387   1.278       .  A
O377       Co380   1.990       .  S
O378        C385   1.283       .  A
O378       Co383   2.067       .  S
O379       C1802   1.275       .  A
O379       Co382   2.033       .  S
Co380       O384   2.044       .  S
Co381      O1800   2.046   1_455  S
Co382       O384   2.027       .  S
Co383      O1782   1.949       .  S
Co383      O1791   2.028       .  S
Co383       O384   2.004       .  S
O384      Co1797   2.046       .  S
C385        C393   1.518       .  S
C386        C513   1.477       .  S
C386       O1795   1.275       .  A
C387        C523   1.526       .  S
C388        C410   1.471       .  S
C389        C390   1.409   1_565  A
C389       C1102   1.404       .  A
C389       Br396   1.942       .  S
C390        C391   1.420   1_545  A
C391       C1100   1.427       .  A
C391       Br398   1.928   1_565  S
C392        C393   1.418       .  A
C392       C1099   1.427       .  A
C392       Br397   1.926       .  S
C393        C394   1.423       .  A
C394       C1097   1.404       .  A
C394       Br395   1.923       .  S
C399        C400   1.415       .  A
C399        C404   1.409       .  A
C399       Br406   1.928       .  S
C400        C401   1.406       .  A
C401        C402   1.400       .  A
C401       Br408   1.928       .  S
C402        C403   1.411       .  A
C402       Br407   1.920       .  S
C403        C404   1.406       .  A
C404       Br405   1.928       .  S
C409        C410   1.405       .  A
C409        C414   1.403       .  A
C409       Br416   1.929       .  S
C410        C411   1.415       .  A
C411       C1120   1.408       .  A
C411      Br2542   1.928   1_455  S
C412        C413   1.409       .  A
C412       C1119   1.408   1_545  A
C412       Br417   1.926   1_455  S
C413       C1122   1.410   1_545  A
C414       C1121   1.410       .  A
C414       Br415   1.924       .  S
Br418      C2535   1.928   1_545  S
C419        C420   1.415       .  A
C419        C424   1.404       .  A
C419       Br426   1.913       .  S
C420        C421   1.412       .  A
C421        C422   1.420       .  A
C421       Br428   1.913       .  S
C422        C423   1.417       .  A
C422       Br427   1.928       .  S
C423        C424   1.406       .  A
C424       Br425   1.934   1_455  S
C429        C434   1.395       .  A
C429       C1138   1.401       .  A
C429      Br2560   1.936       .  S
C430        C431   1.410       .  A
C430       C1137   1.401       .  A
C431       C1140   1.408       .  A
C431       Br438   1.930       .  S
C432        C433   1.413       .  A
C432       C1139   1.408   1_545  A
C432       Br437   1.930       .  S
C433        C434   1.412   1_545  A
C434      Br1851   1.911   1_455  S
Br435      C1850   1.911       .  S
Br436      C2553   1.936       .  S
C439        C440   1.405       .  A
C439        C444   1.414       .  A
C439       Br446   1.927       .  S
C440        C441   1.415       .  A
C441        C442   1.411       .  A
C441      Br1864   1.938       .  S
C442        C443   1.417       .  A
C442      Br1863   1.934       .  S
C443        C444   1.423       .  A
C444       Br445   1.931       .  S
Br447      C1858   1.934       .  S
Br448      C1857   1.938       .  S
C449        C450   1.420       .  A
C449        C454   1.412       .  A
C449       Br456   1.937       .  S
C450       C1159   1.420       .  A
C451        C452   1.422       .  A
C451       C1158   1.420       .  A
C451       Br458   1.918       .  S
C452        C453   1.414       .  A
C452       Br457   1.930       .  S
C453       C1162   1.417       .  A
C454       C1161   1.417   1_545  A
C454       Br455   1.931       .  S
C459        C460   1.421       .  A
C459        C464   1.403       .  A
C459       Br466   1.912       .  S
C460        C461   1.421       .  A
C461        C462   1.419       .  A
C461       Br468   1.930       .  S
C462        C463   1.411       .  A
C462       Br467   1.926       .  S
C463        C464   1.402       .  A
C464       Br465   1.938       .  S
C469        C470   1.417       .  A
C469        C474   1.406       .  A
C469       Br476   1.932       .  S
C470        C471   1.412       .  A
C471        C472   1.418       .  A
C471       Br478   1.935       .  S
C472        C473   1.428       .  A
C472       Br477   1.929       .  S
C473        C474   1.421       .  A
C474       Br475   1.932       .  S
C479        C480   1.415       .  A
C479        C484   1.402       .  A
C479       Br486   1.926       .  S
C480        C481   1.415       .  A
C481        C482   1.394       .  A
C481       Br488   1.930       .  S
C482        C483   1.402       .  A
C482       Br487   1.929       .  S
C483        C484   1.401       .  A
C484       Br485   1.927       .  S
C489        C490   1.408       .  A
C489        C494   1.410       .  A
C489       Br496   1.927       .  S
C490        C491   1.411       .  A
C491        C492   1.414       .  A
C491       Br498   1.927       .  S
C492        C493   1.415       .  A
C492       Br497   1.930       .  S
C493        C494   1.415       .  A
C494       Br495   1.931       .  S
C499        C500   1.406       .  A
C499        C504   1.398       .  A
C499       Br506   1.935       .  S
C500        C501   1.421       .  A
C501        C502   1.425       .  A
C501       Br508   1.926       .  S
C502        C503   1.414       .  A
C502       Br507   1.925       .  S
C503        C504   1.417       .  A
C504       Br505   1.935       .  S
C509        C510   1.422       .  A
C509        C514   1.406       .  A
C509       Br516   1.934       .  S
C510        C511   1.414       .  A
C511        C512   1.409       .  A
C511       Br518   1.933       .  S
C512        C513   1.416       .  A
C512       Br517   1.930       .  S
C513        C514   1.401       .  A
C514       Br515   1.918       .  S
C519        C520   1.412       .  A
C519        C524   1.421       .  A
C519       Br526   1.930       .  S
C520        C521   1.408       .  A
C521        C522   1.414       .  A
C521       Br528   1.937       .  S
C522        C523   1.428       .  A
C522       Br527   1.926       .  S
C523        C524   1.423       .  A
C524       Br525   1.930       .  S
C529        C530   1.406       .  A
C529        C534   1.408       .  A
C529       Br536   1.938       .  S
C530       C1239   1.405   1_545  A
C530        C858   1.493   1_545  S
C531       C1238   1.405       .  A
C531       C1240   1.417       .  A
C531       Br538   1.931       .  S
C532        C533   1.428       .  A
C532       C1239   1.417   1_545  A
C532      Br1245   1.933   1_545  S
C533        C534   1.430       .  A
C534       Br535   1.942       .  S
Br537      C1240   1.933       .  S
C539        C540   1.409       .  A
C539        C544   1.409       .  A
C539       Br546   1.936       .  S
C540       C1249   1.410   1_545  A
C540        C855   1.495       .  S
C541       C1248   1.410       .  A
C541       C1250   1.411       .  A
C541       Br548   1.932       .  S
C542        C543   1.416       .  A
C542       C1249   1.411   1_545  A
C542      Br1255   1.930   1_545  S
C543        C544   1.422       .  A
C544       Br545   1.935       .  S
Br547      C1250   1.930       .  S
C549        C550   1.411       .  A
C549       C1262   1.414       .  A
C549       Br556   1.924       .  S
C550       C1259   1.406       .  A
C551        C552   1.408       .  A
C551       C1258   1.406   1_545  A
C551       Br558   1.939   1_545  S
C552        C553   1.426       .  A
C552       Br557   1.933       .  S
C553        C554   1.408       .  A
C554       C1257   1.414       .  A
C554      Br1263   1.927       .  S
Br555      C1262   1.927       .  S
C559        C560   1.422       .  A
C559        C564   1.406       .  A
C559       Br566   1.937       .  S
C560        C561   1.412       .  A
C561        C562   1.408       .  A
C561       Br568   1.930       .  S
C562        C563   1.411       .  A
C562       Br567   1.931       .  S
C563        C564   1.408       .  A
C564       Br565   1.934       .  S
C569        C570   1.417       .  A
C569       C1282   1.411       .  A
C569       Br576   1.932       .  S
C570        C571   1.422   1_545  A
C571        C572   1.413       .  A
C571       Br578   1.938       .  S
C572       C1281   1.414       .  A
C572       Br577   1.931       .  S
C573        C574   1.412       .  A
C573       C1280   1.414       .  A
C574       C1277   1.411       .  A
C574       Br575   1.929       .  S
C579        C580   1.410       .  A
C579        C584   1.400       .  A
C579       Br586   1.933       .  S
C580        C581   1.405       .  A
C581        C582   1.403       .  A
C581       Br588   1.931       .  S
C582        C583   1.410       .  A
C582       Br587   1.928       .  S
C583        C584   1.412       .  A
C584       Br585   1.933       .  S
C589        C590   1.416       .  A
C589        C594   1.408       .  A
C589       Br596   1.931       .  S
C590        C591   1.422       .  A
C591       C1300   1.415       .  A
C591      Br1306   1.924       .  S
C592        C593   1.414       .  A
C592       C1299   1.415   1_545  A
C592       Br597   1.933       .  S
C593       C1302   1.416   1_545  A
C594       C1301   1.416       .  A
C594       Br595   1.923       .  S
Br598      C1299   1.924       .  S
C599        C600   1.418       .  A
C599        C604   1.399       .  A
C599       Br606   1.908       .  S
C600        C601   1.417       .  A
C601        C602   1.420       .  A
C601       Br608   1.923       .  S
C602        C603   1.412       .  A
C602       Br607   1.927       .  S
C603        C604   1.398       .  A
C604       Br605   1.935       .  S
C609        C610   1.415       .  A
C609       C1322   1.420       .  A
C609       Br616   1.926       .  S
C610        C611   1.415       .  A
C611       C1320   1.391       .  A
C611       Br618   1.905       .  S
C612        C613   1.396       .  A
C612       C1319   1.391   1_545  A
C612       Br617   1.937       .  S
C613        C614   1.414       .  A
C614       C1317   1.420   1_545  A
C614       Br615   1.925       .  S
C619        C620   1.430       .  A
C619        C624   1.410       .  A
C619       Br626   1.934       .  S
C620        C621   1.411       .  A
C621        C622   1.408       .  A
C621       Br628   1.928       .  S
C622        C623   1.416       .  A
C622       Br627   1.929       .  S
C623        C624   1.406       .  A
C624       Br625   1.936       .  S
C629        C630   1.404       .  A
C629        C634   1.393       .  A
C629       Br636   1.930       .  S
C630        C631   1.424       .  A
C631        C632   1.423       .  A
C631       Br638   1.928       .  S
C632        C633   1.411       .  A
C632       Br637   1.923       .  S
C633        C634   1.412       .  A
C634       Br635   1.916       .  S
C639        C640   1.412       .  A
C639        C644   1.423       .  A
C639       Br646   1.929       .  S
C640        C641   1.411       .  A
C641        C642   1.403       .  A
C641       Br648   1.930       .  S
C642        C643   1.411       .  A
C642       Br647   1.922       .  S
C643        C644   1.426       .  A
C644       Br645   1.929       .  S
C649        C650   1.420       .  A
C649        C654   1.428       .  A
C649       Br656   1.925       .  S
C650        C651   1.401       .  A
C651        C652   1.390       .  A
C651       Br658   1.934       .  S
C652        C653   1.407       .  A
C652       Br657   1.893       .  S
C653        C654   1.414       .  A
C654       Br655   1.921       .  S
C659        C660   1.412       .  A
C659        C664   1.409       .  A
C659       Br666   1.936       .  S
C660        C661   1.423       .  A
C661        C662   1.416       .  A
C661       Br668   1.927       .  S
C662        C663   1.406       .  A
C662       Br667   1.925       .  S
C663        C664   1.423       .  A
C664       Br665   1.928       .  S
C669        C670   1.422       .  A
C669        C674   1.406       .  A
C669       Br676   1.918       .  S
C670        C671   1.411       .  A
C671        C672   1.417       .  A
C671       Br678   1.925       .  S
C672        C673   1.415       .  A
C672       Br677   1.928   1_545  S
C673        C674   1.404       .  A
C674       Br675   1.939       .  S
C679        C680   1.418       .  A
C679        C684   1.406       .  A
C679      Br1394   1.931   1_545  S
C680        C681   1.413       .  A
C681        C682   1.394       .  A
C681       Br688   1.935       .  S
C682        C683   1.406       .  A
C682       Br687   1.930       .  S
C683        C684   1.403       .  A
C684      Br1393   1.927       .  S
Br685      C1392   1.927       .  S
Br686      C1387   1.931       .  S
C689        C690   1.412       .  A
C689        C694   1.415       .  A
C689      Br1404   1.934       .  S
C690        C691   1.416       .  A
C691        C692   1.399       .  A
C691       Br698   1.928       .  S
C692        C693   1.402       .  A
C692       Br697   1.928       .  S
C693        C694   1.428       .  A
C694       Br695   1.935       .  S
Br696      C1397   1.934       .  S
C699        C700   1.404       .  A
C699        C704   1.396       .  A
C699       Br706   1.938       .  S
C700        C701   1.413       .  A
C701        C702   1.420       .  A
C701       Br708   1.925       .  S
C702        C703   1.414       .  A
C702       Br707   1.926       .  S
C703        C704   1.410       .  A
C704       Br705   1.910       .  S
N709        C714   1.351       .  A
N709        H741   1.042       .  S
N710       C2133   1.347   1_455  A
N710        C718   1.348       .  A
N711        C715   1.356       .  A
N711        H742   1.041       .  S
N712       C2135   1.350   1_455  A
N712        C720   1.347       .  A
C713        C721   1.386       .  A
C713        C729   1.409       .  A
C714        C730   1.418       .  A
C714        C722   1.390   1_545  A
C715        C723   1.384       .  A
C715        C732   1.419       .  A
C716        C731   1.427       .  A
C716        C724   1.391   1_545  A
C717       N2126   1.347       .  A
C717        C729   1.407       .  A
C717        C725   1.387       .  A
C718        C732   1.407       .  A
C718        C726   1.385       .  A
C719       N2128   1.350       .  A
C719        C727   1.384       .  A
C719        C730   1.409       .  A
C720        C728   1.390       .  A
C720        C731   1.416       .  A
C721        H733   1.082       .  S
C722        H734   1.082       .  S
C723        H735   1.082       .  S
C724        H736   1.082       .  S
C725       C2142   1.372       .  A
C725        H737   1.082       .  S
C726       C2141   1.372   1_455  A
C726        H738   1.080       .  S
C727       C2144   1.378       .  A
C727        H739   1.082       .  S
C728       C2143   1.378   1_455  A
C728        H740   1.082       .  S
C729       C1388   1.486       .  S
C730       C1408   1.492   1_545  S
C731       C1398   1.502   1_545  S
C732       C1381   1.497       .  S
N743        C748   1.357       .  A
N743        C747   1.357       .  A
N743        H775   1.033       .  S
N744       C2167   1.353       .  A
N744        C752   1.356       .  A
N745        C750   1.354       .  A
N745        C749   1.351       .  A
N745        H776   1.042       .  S
N746       C2169   1.351       .  A
N746        C754   1.355       .  A
C747        C755   1.390       .  A
C747        C763   1.429       .  A
C748        C764   1.420       .  A
C748        C756   1.384       .  A
C749        C757   1.382       .  A
C749        C766   1.406       .  A
C750        C765   1.421       .  A
C750        C758   1.391       .  A
C751       N2160   1.353       .  A
C751        C763   1.435       .  A
C751        C759   1.392       .  A
C752        C766   1.416       .  A
C752        C760   1.380       .  A
C753       N2162   1.351       .  A
C753        C761   1.386       .  A
C753        C764   1.425       .  A
C754        C762   1.388       .  A
C754        C765   1.428       .  A
C755        C756   1.369       .  A
C755        H767   1.081       .  S
C756        H768   1.080       .  S
C757        C758   1.376       .  A
C757        H769   1.082       .  S
C758        H770   1.082       .  S
C759       C2176   1.378   1_455  A
C759        H771   1.081       .  S
C760       C2175   1.378       .  A
C760        H772   1.081       .  S
C761       C2178   1.383   1_455  A
C761        H773   1.082       .  S
C762       C2177   1.383       .  A
C762        H774   1.082       .  S
C763       C1338   1.509       .  S
C764       C1358   1.501       .  S
C765       C1368   1.515       .  S
C766       C1348   1.504       .  S
O777        C785   1.251       .  A
O777       Co797   1.949       .  S
O778        C786   1.277       .  A
O778       Co798   1.952       .  S
O779        C787   1.278       .  A
O779       Co799   2.053       .  S
O780        C788   1.263       .  A
O780       Co800   2.048       .  S
O781        C787   1.261       .  A
O781       Co798   1.990       .  S
O782        C788   1.240       .  A
O782       Co797   1.951       .  S
O783        C786   1.287       .  A
O783       Co800   2.062       .  S
O784        C785   1.281       .  A
O784       Co799   2.055       .  S
C785       C1371   1.500       .  S
C786       C1308   1.503       .  S
C787       C1361   1.507       .  S
C788       C1328   1.506       .  S
O789        C802   1.283       .  A
O789       Co797   2.062       .  S
O790        C803   1.272       .  A
O790       Co798   2.028       .  S
O791        C804   1.256       .  A
O791       Co799   1.978       .  S
O792        C805   1.260       .  A
O792       Co800   1.925       .  S
O793        C805   1.285       .  A
O793       Co798   2.092       .  S
O794        C804   1.267       .  A
O794       Co797   2.023       .  S
O795        C802   1.263       .  A
O795       Co800   1.962       .  S
O796        C803   1.250       .  A
O796       Co799   1.963       .  S
Co797       O801   2.043       .  S
Co798       O801   2.060       .  S
Co799       O801   2.063       .  S
Co800       O801   2.036       .  S
C802       C1318   1.497       .  S
C803       C1401   1.503       .  S
C804       C1411   1.493       .  S
C805       C1298   1.509       .  S
O806        C814   1.258       .  A
O806       Co826   1.976       .  S
O807        C815   1.277       .  A
O807       Co827   1.923       .  S
O808        C816   1.271       .  A
O808       Co828   2.027       .  S
O809        C817   1.238       .  A
O809       Co829   1.953       .  S
O810        C816   1.263       .  A
O810       Co827   1.990       .  S
O811        C817   1.258       .  A
O811       Co826   2.000       .  S
O812        C815   1.289       .  A
O812       Co829   2.042       .  S
O813        C814   1.274       .  A
O813       Co828   2.043       .  S
C814       C1351   1.517       .  S
C815       C1268   1.488       .  S
C816       C1341   1.497       .  S
C817       C1288   1.461       .  S
O818        C831   1.283       .  A
O818       Co826   2.061       .  S
O819        C832   1.270       .  A
O819       Co827   2.044       .  S
O820        C833   1.248       .  A
O820       Co828   1.952       .  S
O821        C834   1.234       .  A
O821       Co829   1.935       .  S
O822        C834   1.276       .  A
O822       Co827   2.074       .  S
O823        C833   1.266       .  A
O823       Co826   2.011       .  S
O824        C831   1.254       .  A
O824       Co829   1.939       .  S
O825        C832   1.251       .  A
O825       Co828   1.966       .  S
Co826       O830   2.089       .  S
Co827       O830   2.014       .  S
Co828       O830   2.038       .  S
Co829       O830   2.039       .  S
C831       C1278   1.499       .  S
C832       C1378   1.498       .  S
C833       C1391   1.461       .  S
C834       C1261   1.493       .  S
N835        C840   1.359   1_556  A
N835        C839   1.357   1_565  A
N835        H867   1.041       .  S
N836        C843   1.346       .  A
N836        C844   1.350       .  A
N837        C842   1.349   1_556  A
N837        C841   1.352       .  A
N837        H868   1.043       .  S
N838        C845   1.353       .  A
N838        C846   1.352       .  A
C839        C847   1.388       .  A
C839        C855   1.424       .  A
C840        C856   1.421       .  A
C840        C848   1.385   1_565  A
C841        C849   1.382       .  A
C841        C858   1.403       .  A
C842        C857   1.414       .  A
C842        C850   1.390       .  A
C843        C855   1.415   1_565  A
C844        C858   1.404       .  A
C845        C853   1.385       .  A
C845        C856   1.417       .  A
C846        C854   1.387       .  A
C846        C857   1.420       .  A
C847        C848   1.377   1_556  A
C847        H859   1.082       .  S
C848        H860   1.082       .  S
C849        C850   1.376   1_556  A
C849        H861   1.082       .  S
C850        H862   1.082       .  S
C851        C852   1.375       .  A
C851        H863   1.082       .  S
C852        H864   1.082       .  S
C853        C854   1.380       .  A
C853        H865   1.082       .  S
C854        H866   1.081       .  S
C856       C1228   1.511       .  S
C857       C1218   1.528       .  S
N869        C874   1.366   1_556  A
N869        C873   1.354       .  A
N869        H901   1.036       .  S
N870        C877   1.354       .  A
N870        C878   1.360       .  A
N871        C876   1.352   1_556  A
N871        C875   1.349       .  A
N871        H902   1.042       .  S
N872        C879   1.344       .  A
N872        C880   1.343       .  A
C873        C881   1.389       .  A
C873        C889   1.436       .  A
C874        C890   1.440       .  A
C874        C882   1.386       .  A
C875        C883   1.395       .  A
C875        C892   1.424       .  A
C876        C891   1.402       .  A
C876        C884   1.379       .  A
C877        C889   1.433       .  A
C877        C885   1.390       .  A
C878        C892   1.427       .  A
C878        C886   1.384       .  A
C879        C887   1.387       .  A
C879        C890   1.407       .  A
C880        C888   1.382       .  A
C880        C891   1.395       .  A
C881        C882   1.378   1_556  A
C881        H893   1.081       .  S
C882        H894   1.080       .  S
C883        C884   1.367   1_556  A
C883        H895   1.078       .  S
C884        H896   1.082       .  S
C885        C886   1.379       .  A
C885        H897   1.082       .  S
C886        H898   1.082       .  S
C887        C888   1.377       .  A
C887        H899   1.080       .  S
C888        H900   1.082       .  S
C889       C1201   1.507       .  S
C890       C1178   1.542       .  S
C891       C1188   1.484       .  S
C892       C1208   1.509       .  S
O903        C911   1.246       .  A
O903      Co2339   1.966   1_455  S
O904        C912   1.264       .  A
O904      Co2340   1.975       .  S
O905        C913   1.270   1_655  A
O905      Co2341   1.998       .  S
O906        C914   1.238       .  A
O906      Co2342   1.965   1_455  S
O907        C913   1.264       .  A
O907      Co2340   1.973       .  S
O908        C914   1.255       .  A
O908      Co2339   2.021   1_455  S
O909        C912   1.283       .  A
O909      Co2342   2.044   1_455  S
O910        C911   1.254       .  A
O910      Co2341   2.003   1_455  S
C911       C1241   1.514       .  S
C912       C1148   1.491       .  S
C913       C1141   1.479       .  S
C914       C1198   1.486       .  S
O915        C928   1.276       .  A
O915       Co923   2.003       .  S
O916        C929   1.265       .  A
O916       Co924   2.002       .  S
O917        C930   1.271       .  A
O917       Co925   1.905       .  S
O918        C931   1.255       .  A
O918       Co926   1.983       .  S
O919        C931   1.269       .  A
O919       Co924   2.034       .  S
O920        C930   1.291       .  A
O920       Co923   2.069       .  S
O921        C928   1.285       .  A
O921       Co926   1.983       .  S
O922        C929   1.269       .  A
O922       Co925   2.015       .  S
Co923      O2319   1.966       .  S
Co923      O2324   2.021       .  S
Co923       O927   2.204       .  S
Co924      O2320   1.975       .  S
Co924      O2323   1.973       .  S
Co924       O927   2.077       .  S
Co925      O2321   1.998       .  S
Co925      O2326   2.003       .  S
Co925       O927   1.979       .  S
Co926      O2322   1.965       .  S
Co926      O2325   2.044       .  S
Co926       O927   1.997       .  S
C928       C1211   1.498       .  S
C929       C1158   1.519       .  S
C930       C1251   1.496       .  S
C931       C1168   1.510       .  S
N932        C937   1.355       .  A
N932        C936   1.352       .  A
N932        H964   1.040       .  S
N933        C940   1.347       .  A
N933        C941   1.354       .  A
N934        C939   1.348       .  A
N934        C938   1.356       .  A
N934        H965   1.041       .  S
N935        C942   1.352       .  A
N935        C943   1.349       .  A
C936        C944   1.389       .  A
C936        C952   1.419       .  A
C937        C953   1.413       .  A
C937        C945   1.384       .  A
C938        C946   1.385       .  A
C938        C955   1.414       .  A
C939        C954   1.414       .  A
C939        C947   1.391       .  A
C940        C952   1.417       .  A
C940        C948   1.388       .  A
C941        C955   1.417       .  A
C941        C949   1.384       .  A
C942        C950   1.386   1_565  A
C942        C953   1.413       .  A
C943        C951   1.387       .  A
C943        C954   1.411       .  A
C944        C945   1.378       .  A
C944        H956   1.082       .  S
C945        H957   1.082       .  S
C946        C947   1.369       .  A
C946       H2374   1.082       .  S
C947       H2375   1.080       .  S
C948        C949   1.379       .  A
C948        H960   1.082       .  S
C949        H961   1.082       .  S
C950        C951   1.373   1_545  A
C952       C1271   1.491       .  S
C953       C1258   1.495       .  S
C954       C1138   1.478       .  S
C955       C1151   1.514       .  S
H958       C2362   1.082       .  S
H959       C2363   1.080       .  S
N966        C971   1.355       .  A
N966        C970   1.352       .  A
N966        H998   1.039       .  S
N967        C974   1.351       .  A
N967        C975   1.351       .  A
N968        C973   1.358       .  A
N968        C972   1.359       .  A
N968        H999   1.039       .  S
N969        C976   1.356       .  A
N969        C977   1.356       .  A
C970        C978   1.388       .  A
C970        C986   1.416       .  A
C971        C987   1.419       .  A
C971        C979   1.387       .  A
C972        C980   1.383       .  A
C972        C989   1.422       .  A
C973        C988   1.431       .  A
C973        C981   1.388       .  A
C974        C986   1.412       .  A
C974        C982   1.387       .  A
C975        C989   1.414       .  A
C975        C983   1.389       .  A
C976        C984   1.385       .  A
C976        C987   1.424       .  A
C977        C985   1.385   1_565  A
C977        C988   1.422       .  A
C978        C979   1.375       .  A
C978        H990   1.081       .  S
C979        H991   1.082       .  S
C980        C981   1.378       .  A
C980        H992   1.082       .  S
C981        H993   1.076       .  S
C982        C983   1.361       .  A
C982        H994   1.082       .  S
C983        H995   1.082       .  S
C984        C985   1.373   1_565  A
C986       C1291   1.486       .  S
C987       C1281   1.509       .  S
C988       C1161   1.518       .  S
C989       C1171   1.498       .  S
N1000      C1005   1.349       .  A
N1000      C1004   1.357       .  A
N1000      H1032   1.042       .  S
N1001      C1008   1.353       .  A
N1001      C1009   1.348       .  A
N1002      C1007   1.356       .  A
N1002      C1006   1.353       .  A
N1002      H1033   1.039       .  S
N1003      C1010   1.355       .  A
N1003      C1011   1.357       .  A
C1004      C1012   1.389       .  A
C1004      C1020   1.422       .  A
C1005      C1021   1.412       .  A
C1005      C1013   1.386       .  A
C1006      C1014   1.386       .  A
C1006      C1023   1.418       .  A
C1007      C1022   1.423       .  A
C1007      C1015   1.389       .  A
C1008      C1020   1.415       .  A
C1008      C1016   1.385       .  A
C1009      C1023   1.414       .  A
C1009      C1017   1.388       .  A
C1010      C1018   1.387       .  A
C1010      C1021   1.421       .  A
C1011      C1019   1.387       .  A
C1011      C1022   1.425       .  A
C1012      C1013   1.382       .  A
C1012      H1024   1.082       .  S
C1013      H1025   1.082       .  S
C1014      C1015   1.378       .  A
C1014      H1026   1.082       .  S
C1015      H1027   1.081       .  S
C1016      C1017   1.377       .  A
C1018      C1019   1.372       .  A
C1018      H1030   1.082       .  S
C1019      H1031   1.081       .  S
C1020      C1301   1.515       .  S
C1021      C1311   1.493       .  S
C1022      C1131   1.507       .  S
C1023      C1121   1.493       .  S
N1034      C1039   1.358       .  A
N1034      C1038   1.350       .  A
N1034      H1066   1.041       .  S
N1035      C1042   1.354       .  A
N1035      C1043   1.358       .  A
N1036      C1041   1.355       .  A
N1036      C1040   1.357       .  A
N1036      H1067   1.033       .  S
N1037      C1044   1.349       .  A
N1037      C1045   1.345       .  A
C1038      C1046   1.388       .  A
C1038      C1054   1.414       .  A
C1039      C1055   1.419       .  A
C1039      C1047   1.387       .  A
C1040      C1048   1.389       .  A
C1040      C1057   1.430       .  A
C1041      C1056   1.427       .  A
C1041      C1049   1.387       .  A
C1042      C1054   1.426       .  A
C1042      C1050   1.388       .  A
C1043      C1057   1.431       .  A
C1043      C1051   1.387       .  A
C1044      C1052   1.383       .  A
C1044      C1055   1.405       .  A
C1045      C1053   1.391       .  A
C1045      C1056   1.415       .  A
C1046      C1047   1.377       .  A
C1046      H1058   1.082       .  S
C1047      H1059   1.082       .  S
C1048      C1049   1.379       .  A
C1048      H1060   1.081       .  S
C1049      H1061   1.082       .  S
C1050      C1051   1.370       .  A
C1052      C1053   1.369       .  A
C1052      H1064   1.082       .  S
C1053      H1065   1.082       .  S
C1054      C1321   1.489       .  S
C1055      C1331   1.501       .  S
C1056      C1108   1.489       .  S
C1057      C1098   1.517       .  S
O1068      C1076   1.263       .  A
O1068     Co1088   1.988       .  S
O1069      C1077   1.283       .  A
O1069     Co1089   2.081       .  S
O1070      C2494   1.260       .  A
O1070     Co1090   1.976       .  S
O1071      C1079   1.262       .  A
O1071     Co1091   1.911       .  S
O1072      C1078   1.269       .  A
O1072     Co1089   2.024       .  S
O1073      C1079   1.282       .  A
O1073     Co1088   2.091       .  S
O1074      C1077   1.257       .  A
O1074     Co2507   1.949   1_455  S
O1075      C1076   1.255       .  A
O1075     Co1090   1.971       .  S
C1076      C1191   1.453       .  S
C1077      C1128   1.506       .  S
C1078      C1181   1.510       .  S
C1078      O2486   1.260       .  A
C1079      C1111   1.475       .  S
O1080      C1093   1.274       .  A
O1080     Co1088   1.961       .  S
O1081      C1094   1.255       .  A
O1081     Co1089   1.954       .  S
O1082      C1095   1.281       .  A
O1082     Co1090   2.042       .  S
O1083      C1096   1.268       .  A
O1083     Co2507   2.028   1_455  S
O1084      C1096   1.246       .  A
O1084     Co1089   1.951       .  S
O1085      C1095   1.278       .  A
O1085     Co1088   1.990       .  S
O1086      C1093   1.283       .  A
O1086     Co1091   2.067       .  S
O1087      C2510   1.275       .  A
O1087     Co1090   2.033       .  S
Co1088     O1092   2.044       .  S
Co1089     O2508   2.046   1_455  S
Co1090     O1092   2.027       .  S
Co1091     O2490   1.949       .  S
Co1091     O2499   2.028       .  S
Co1091     O1092   2.004       .  S
O1092     Co2505   2.046       .  S
C1093      C1101   1.518       .  S
C1094      C1221   1.477       .  S
C1094      O2503   1.275       .  A
C1095      C1231   1.526       .  S
C1096      C1118   1.471       .  S
C1097      C1098   1.409       .  A
C1097     Br1104   1.942       .  S
C1098      C1099   1.420       .  A
C1099     Br1106   1.928       .  S
C1100      C1101   1.418       .  A
C1100     Br1105   1.926       .  S
C1101      C1102   1.423       .  A
C1102     Br1103   1.923       .  S
C1107      C1108   1.415       .  A
C1107      C1112   1.409       .  A
C1107     Br1114   1.928       .  S
C1108      C1109   1.406       .  A
C1109      C1110   1.400       .  A
C1109     Br1116   1.928       .  S
C1110      C1111   1.411       .  A
C1110     Br1115   1.920       .  S
C1111      C1112   1.406       .  A
C1112     Br1113   1.928       .  S
C1117      C1118   1.405       .  A
C1117      C1122   1.403       .  A
C1117     Br1124   1.929       .  S
C1118      C1119   1.415       .  A
C1119     Br1834   1.928   1_465  S
C1120      C1121   1.409       .  A
C1120     Br1125   1.926   1_455  S
C1122     Br1123   1.924   1_565  S
Br1126     C1827   1.928       .  S
C1127      C1128   1.415       .  A
C1127      C1132   1.404       .  A
C1127     Br1134   1.913       .  S
C1128      C1129   1.412       .  A
C1129      C1130   1.420       .  A
C1129     Br1136   1.913       .  S
C1130      C1131   1.417       .  A
C1130     Br1135   1.928       .  S
C1131      C1132   1.406       .  A
C1132     Br1133   1.934   1_455  S
C1137      C1142   1.395       .  A
C1137     Br1852   1.936       .  S
C1138      C1139   1.410       .  A
C1139     Br1146   1.930       .  S
C1140      C1141   1.413       .  A
C1140     Br1145   1.930       .  S
C1141      C1142   1.412       .  A
C1142     Br2559   1.911   1_455  S
Br1143     C2558   1.911       .  S
Br1144     C1845   1.936       .  S
C1147      C1148   1.405       .  A
C1147      C1152   1.414       .  A
C1147     Br1154   1.927       .  S
C1148      C1149   1.415       .  A
C1149      C1150   1.411       .  A
C1149     Br2572   1.938       .  S
C1150      C1151   1.417       .  A
C1150     Br2571   1.934       .  S
C1151      C1152   1.423       .  A
C1152     Br1153   1.931       .  S
Br1155     C2566   1.934       .  S
Br1156     C2565   1.938       .  S
C1157      C1158   1.420       .  A
C1157      C1162   1.412       .  A
C1157     Br1164   1.937       .  S
C1159      C1160   1.422       .  A
C1159     Br1166   1.918       .  S
C1160      C1161   1.414   1_545  A
C1160     Br1165   1.930   1_545  S
C1162     Br1163   1.931       .  S
C1167      C1168   1.421       .  A
C1167      C1172   1.403       .  A
C1167     Br1174   1.912       .  S
C1168      C1169   1.421       .  A
C1169      C1170   1.419       .  A
C1169     Br1176   1.930       .  S
C1170      C1171   1.411       .  A
C1170     Br1175   1.926       .  S
C1171      C1172   1.402       .  A
C1172     Br1173   1.938       .  S
C1177      C1178   1.417       .  A
C1177      C1182   1.406       .  A
C1177     Br1184   1.932       .  S
C1178      C1179   1.412       .  A
C1179      C1180   1.418       .  A
C1179     Br1186   1.935       .  S
C1180      C1181   1.428       .  A
C1180     Br1185   1.929       .  S
C1181      C1182   1.421       .  A
C1182     Br1183   1.932       .  S
C1187      C1188   1.415       .  A
C1187      C1192   1.402       .  A
C1187     Br1194   1.926       .  S
C1188      C1189   1.415       .  A
C1189      C1190   1.394       .  A
C1189     Br1196   1.930       .  S
C1190      C1191   1.402       .  A
C1190     Br1195   1.929       .  S
C1191      C1192   1.401       .  A
C1192     Br1193   1.927       .  S
C1197      C1198   1.408       .  A
C1197      C1202   1.410       .  A
C1197     Br1204   1.927       .  S
C1198      C1199   1.411       .  A
C1199      C1200   1.414       .  A
C1199     Br1206   1.927       .  S
C1200      C1201   1.415       .  A
C1200     Br1205   1.930       .  S
C1201      C1202   1.415       .  A
C1202     Br1203   1.931       .  S
C1207      C1208   1.406       .  A
C1207      C1212   1.398       .  A
C1207     Br1214   1.935       .  S
C1208      C1209   1.421       .  A
C1209      C1210   1.425       .  A
C1209     Br1216   1.926       .  S
C1210      C1211   1.414       .  A
C1210     Br1215   1.925       .  S
C1211      C1212   1.417       .  A
C1212     Br1213   1.935       .  S
C1217      C1218   1.422       .  A
C1217      C1222   1.406       .  A
C1217     Br1224   1.934   1_565  S
C1218      C1219   1.414       .  A
C1219      C1220   1.409       .  A
C1219     Br1226   1.933       .  S
C1220      C1221   1.416       .  A
C1220     Br1225   1.930       .  S
C1221      C1222   1.401       .  A
C1222     Br1223   1.918       .  S
C1227      C1228   1.412       .  A
C1227      C1232   1.421       .  A
C1227     Br1234   1.930   1_565  S
C1228      C1229   1.408       .  A
C1229      C1230   1.414       .  A
C1229     Br1236   1.937       .  S
C1230      C1231   1.428       .  A
C1230     Br1235   1.926       .  S
C1231      C1232   1.423       .  A
C1232     Br1233   1.930       .  S
C1237      C1238   1.406       .  A
C1237      C1242   1.408       .  A
C1237     Br1244   1.938       .  S
C1239     Br1246   1.931       .  S
C1240      C1241   1.428       .  A
C1241      C1242   1.430       .  A
C1242     Br1243   1.942       .  S
C1247      C1248   1.409       .  A
C1247      C1252   1.409       .  A
C1247     Br1254   1.936       .  S
C1249     Br1256   1.932       .  S
C1250      C1251   1.416       .  A
C1251      C1252   1.422       .  A
C1252     Br1253   1.935       .  S
C1257      C1258   1.411   1_545  A
C1257     Br1264   1.924   1_545  S
C1259      C1260   1.408       .  A
C1259     Br1266   1.939       .  S
C1260      C1261   1.426       .  A
C1260     Br1265   1.933       .  S
C1261      C1262   1.408       .  A
C1267      C1268   1.422       .  A
C1267      C1272   1.406       .  A
C1267     Br1274   1.937       .  S
C1268      C1269   1.412       .  A
C1269      C1270   1.408       .  A
C1269     Br1276   1.930       .  S
C1270      C1271   1.411       .  A
C1270     Br1275   1.931       .  S
C1271      C1272   1.408       .  A
C1272     Br1273   1.934       .  S
C1277      C1278   1.417       .  A
C1277     Br1284   1.932       .  S
C1278      C1279   1.422       .  A
C1279      C1280   1.413       .  A
C1279     Br1286   1.938       .  S
C1280     Br1285   1.931       .  S
C1281      C1282   1.412   1_565  A
C1282     Br1283   1.929       .  S
C1287      C1288   1.410       .  A
C1287      C1292   1.400       .  A
C1287     Br1294   1.933       .  S
C1288      C1289   1.405       .  A
C1289      C1290   1.403       .  A
C1289     Br1296   1.931       .  S
C1290      C1291   1.410       .  A
C1290     Br1295   1.928       .  S
C1291      C1292   1.412       .  A
C1292     Br1293   1.933       .  S
C1297      C1298   1.416       .  A
C1297      C1302   1.408       .  A
C1297     Br1304   1.931       .  S
C1298      C1299   1.422       .  A
C1300      C1301   1.414       .  A
C1300     Br1305   1.933       .  S
C1302     Br1303   1.923       .  S
C1307      C1308   1.418       .  A
C1307      C1312   1.399       .  A
C1307     Br1314   1.908       .  S
C1308      C1309   1.417       .  A
C1309      C1310   1.420       .  A
C1309     Br1316   1.923       .  S
C1310      C1311   1.412       .  A
C1310     Br1315   1.927       .  S
C1311      C1312   1.398       .  A
C1312     Br1313   1.935       .  S
C1317      C1318   1.415       .  A
C1317     Br1324   1.926       .  S
C1318      C1319   1.415       .  A
C1319     Br1326   1.905       .  S
C1320      C1321   1.396       .  A
C1320     Br1325   1.937       .  S
C1321      C1322   1.414       .  A
C1322     Br1323   1.925       .  S
C1327      C1328   1.430       .  A
C1327      C1332   1.410       .  A
C1327     Br1334   1.934       .  S
C1328      C1329   1.411       .  A
C1329      C1330   1.408       .  A
C1329     Br1336   1.928       .  S
C1330      C1331   1.416       .  A
C1330     Br1335   1.929       .  S
C1331      C1332   1.406       .  A
C1332     Br1333   1.936       .  S
C1337      C1338   1.404       .  A
C1337      C1342   1.393       .  A
C1337     Br1344   1.930       .  S
C1338      C1339   1.424       .  A
C1339      C1340   1.423       .  A
C1339     Br1346   1.928       .  S
C1340      C1341   1.411       .  A
C1340     Br1345   1.923       .  S
C1341      C1342   1.412       .  A
C1342     Br1343   1.916       .  S
C1347      C1348   1.412       .  A
C1347      C1352   1.423       .  A
C1347     Br1354   1.929       .  S
C1348      C1349   1.411       .  A
C1349      C1350   1.403       .  A
C1349     Br1356   1.930       .  S
C1350      C1351   1.411       .  A
C1350     Br1355   1.922       .  S
C1351      C1352   1.426       .  A
C1352     Br1353   1.929       .  S
C1357      C1358   1.420       .  A
C1357      C1362   1.428       .  A
C1357     Br1364   1.925       .  S
C1358      C1359   1.401       .  A
C1359      C1360   1.390       .  A
C1359     Br1366   1.934       .  S
C1360      C1361   1.407       .  A
C1360     Br1365   1.893       .  S
C1361      C1362   1.414       .  A
C1362     Br1363   1.921       .  S
C1367      C1368   1.412       .  A
C1367      C1372   1.409       .  A
C1367     Br1374   1.936       .  S
C1368      C1369   1.423       .  A
C1369      C1370   1.416       .  A
C1369     Br1376   1.927       .  S
C1370      C1371   1.406       .  A
C1370     Br1375   1.925       .  S
C1371      C1372   1.423       .  A
C1372     Br1373   1.928       .  S
C1377      C1378   1.422       .  A
C1377      C1382   1.406       .  A
C1377     Br1384   1.918       .  S
C1378      C1379   1.411       .  A
C1379      C1380   1.417       .  A
C1379     Br1386   1.925       .  S
C1380      C1381   1.415       .  A
C1380     Br1385   1.928       .  S
C1381      C1382   1.404       .  A
C1382     Br1383   1.939       .  S
C1387      C1388   1.418       .  A
C1387      C1392   1.406       .  A
C1388      C1389   1.413       .  A
C1389      C1390   1.394       .  A
C1389     Br1396   1.935       .  S
C1390      C1391   1.406       .  A
C1390     Br1395   1.930       .  S
C1391      C1392   1.403       .  A
C1397      C1398   1.412   1_545  A
C1397      C1402   1.415   1_545  A
C1398      C1399   1.416       .  A
C1399      C1400   1.399       .  A
C1399     Br1406   1.928       .  S
C1400      C1401   1.402       .  A
C1400     Br1405   1.928       .  S
C1401      C1402   1.428       .  A
C1402     Br1403   1.935   1_565  S
C1407      C1408   1.404       .  A
C1407      C1412   1.396       .  A
C1407     Br1414   1.938       .  S
C1408      C1409   1.413   1_565  A
C1409      C1410   1.420   1_545  A
C1409     Br1416   1.925       .  S
C1410      C1411   1.414       .  A
C1410     Br1415   1.926   1_565  S
C1411      C1412   1.410       .  A
C1412     Br1413   1.910       .  S
N1417      C1422   1.351       .  A
N1417      C2129   1.350       .  A
N1417      H1449   1.042       .  S
N1418      C1426   1.348       .  A
N1419      C2132   1.354       .  A
N1419      C1423   1.356       .  A
N1419      H1450   1.041       .  S
N1420      C1428   1.347       .  A
C1421      N2125   1.350       .  A
C1421      C1429   1.386   1_545  A
C1421      C1437   1.409       .  A
C1422      C1438   1.418       .  A
C1422      C1430   1.390       .  A
C1423      C1431   1.384   1_545  A
C1423      C1440   1.419       .  A
C1424      N2127   1.354       .  A
C1424      C1439   1.427       .  A
C1424      C1432   1.391       .  A
C1425      C1437   1.407       .  A
C1425      C1433   1.387       .  A
C1426      C1440   1.407       .  A
C1426      C1434   1.385       .  A
C1427      C1435   1.384       .  A
C1427      C1438   1.409       .  A
C1428      C1436   1.390       .  A
C1428      C1439   1.416       .  A
C1429      C2138   1.374       .  A
C1429      H1441   1.082       .  S
C1430      C2137   1.374       .  A
C1430      H1442   1.082       .  S
C1431      C2140   1.384       .  A
C1431      H1443   1.082       .  S
C1432      C2139   1.384       .  A
C1432      H1444   1.082       .  S
C1433      H1445   1.082       .  S
C1434      H1446   1.080       .  S
C1435      H1447   1.082       .  S
C1436      H1448   1.082       .  S
C1437      C2096   1.486       .  S
C1438      C2116   1.492       .  S
C1439      C2106   1.502       .  S
C1440      C2089   1.497       .  S
N1451      C1456   1.357       .  A
N1451      C1455   1.357       .  A
N1451      H1483   1.033       .  S
N1452      C1460   1.356   1_455  A
N1453      C1458   1.354       .  A
N1453      C1457   1.351       .  A
N1453      H1484   1.042       .  S
N1454      C1462   1.355   1_455  A
C1455      C1463   1.390       .  A
C1455      C1471   1.429       .  A
C1456      C1472   1.420       .  A
C1456      C1464   1.384       .  A
C1457      C1465   1.382       .  A
C1457      C1474   1.406       .  A
C1458      C1473   1.421       .  A
C1458      C1466   1.391       .  A
C1459      C1471   1.435       .  A
C1459      C1467   1.392       .  A
C1460      C1474   1.416       .  A
C1460      C1468   1.380       .  A
C1461      C1469   1.386       .  A
C1461      C1472   1.425       .  A
C1462      C1470   1.388       .  A
C1462      C1473   1.428       .  A
C1463      C1464   1.369       .  A
C1463      H1475   1.081       .  S
C1464      H1476   1.080       .  S
C1465      C1466   1.376       .  A
C1465      H1477   1.082       .  S
C1466      H1478   1.082       .  S
C1467      H1479   1.081       .  S
C1468      H1480   1.081       .  S
C1469      H1481   1.082       .  S
C1470      H1482   1.082       .  S
C1471      C2046   1.509       .  S
C1472      C2066   1.501       .  S
C1473      C2076   1.515       .  S
C1474      C2056   1.504       .  S
O1485      C1493   1.251       .  A
O1485     Co1505   1.949       .  S
O1486      C1494   1.277       .  A
O1486     Co1506   1.952       .  S
O1487      C1495   1.278       .  A
O1487     Co1507   2.053       .  S
O1488      C1496   1.263       .  A
O1488     Co1508   2.048       .  S
O1489      C1495   1.261       .  A
O1489     Co1506   1.990       .  S
O1490      C1496   1.240       .  A
O1490     Co1505   1.951       .  S
O1491      C1494   1.287       .  A
O1491     Co1508   2.062       .  S
O1492      C1493   1.281       .  A
O1492     Co1507   2.055       .  S
C1493      C2079   1.500       .  S
C1494      C2016   1.503       .  S
C1495      C2069   1.507       .  S
C1496      C2036   1.506       .  S
O1497      C1510   1.283       .  A
O1497     Co1505   2.062       .  S
O1498      C1511   1.272       .  A
O1498     Co1506   2.028       .  S
O1499      C1512   1.256       .  A
O1499     Co1507   1.978       .  S
O1500      C1513   1.260       .  A
O1500     Co1508   1.925       .  S
O1501      C1513   1.285       .  A
O1501     Co1506   2.092       .  S
O1502      C1512   1.267       .  A
O1502     Co1505   2.023       .  S
O1503      C1510   1.263       .  A
O1503     Co1508   1.962       .  S
O1504      C1511   1.250       .  A
O1504     Co1507   1.963       .  S
Co1505     O1509   2.043       .  S
Co1506     O1509   2.060       .  S
Co1507     O1509   2.063       .  S
Co1508     O1509   2.036       .  S
C1510      C2026   1.497       .  S
C1511      C2109   1.503       .  S
C1512      C2119   1.493       .  S
C1513      C2006   1.509       .  S
O1514      C1522   1.258       .  A
O1514     Co1534   1.976       .  S
O1515      C1523   1.277       .  A
O1515     Co1535   1.923       .  S
O1516      C1524   1.271       .  A
O1516     Co1536   2.026       .  S
O1517      C1525   1.238       .  A
O1517     Co1537   1.953       .  S
O1518      C1524   1.263       .  A
O1518     Co1535   1.990       .  S
O1519      C1525   1.258       .  A
O1519     Co1534   2.000       .  S
O1520      C1523   1.289       .  A
O1520     Co1537   2.042       .  S
O1521      C1522   1.274       .  A
O1521     Co1536   2.043       .  S
C1522      C2059   1.517       .  S
C1523      C1976   1.488       .  S
C1524      C2049   1.497       .  S
C1525      C1996   1.461       .  S
O1526      C1539   1.283       .  A
O1526     Co1534   2.061       .  S
O1527      C1540   1.270       .  A
O1527     Co1535   2.044       .  S
O1528      C1541   1.248       .  A
O1528     Co1536   1.952       .  S
O1529      C1542   1.234       .  A
O1529     Co1537   1.935       .  S
O1530      C1542   1.276       .  A
O1530     Co1535   2.074       .  S
O1531      C1541   1.266       .  A
O1531     Co1534   2.011       .  S
O1532      C1539   1.254       .  A
O1532     Co1537   1.939       .  S
O1533      C1540   1.251       .  A
O1533     Co1536   1.966       .  S
Co1534     O1538   2.089       .  S
Co1535     O1538   2.014       .  S
Co1536     O1538   2.038       .  S
Co1537     O1538   2.039       .  S
C1539      C1986   1.499       .  S
C1540      C2086   1.498       .  S
C1541      C2099   1.461       .  S
C1542      C1969   1.493       .  S
N1543      C1548   1.359   1_556  A
N1543      C1547   1.357       .  A
N1543      H1575   1.041       .  S
N1544      C1551   1.346       .  A
N1544      C1552   1.350       .  A
N1545      C1550   1.349   1_556  A
N1545      C1549   1.352       .  A
N1545      H1576   1.043       .  S
N1546      C1553   1.353       .  A
N1546      C1554   1.352       .  A
C1547      C1555   1.388       .  A
C1547      C1563   1.424       .  A
C1548      C1564   1.421       .  A
C1548      C1556   1.385       .  A
C1549      C1557   1.382       .  A
C1549      C1566   1.403       .  A
C1550      C1565   1.414       .  A
C1550      C1558   1.390       .  A
C1551      C1563   1.415       .  A
C1551      C2267   1.390       .  A
C1552      C1566   1.404       .  A
C1552      C2268   1.382       .  A
C1553      C1561   1.385       .  A
C1553      C1564   1.417       .  A
C1554      C1562   1.387       .  A
C1554      C1565   1.420       .  A
C1555      C1556   1.377   1_556  A
C1555      H1567   1.082       .  S
C1556      H1568   1.082       .  S
C1557      C1558   1.376   1_556  A
C1557      H1569   1.082       .  S
C1558      H1570   1.082       .  S
C1559      C2259   1.390   1_545  A
C1559      C1560   1.375       .  A
C1559      H1571   1.082       .  S
C1560      C2260   1.382   1_545  A
C1560      H1572   1.082       .  S
C1561      C1562   1.380       .  A
C1561      H1573   1.082       .  S
C1562      H1574   1.081       .  S
C1563      C2664   1.495       .  S
C1564      C1936   1.511       .  S
C1565      C1926   1.528       .  S
C1566      C2654   1.493       .  S
N1577      C1582   1.366   1_556  A
N1577      C1581   1.354       .  A
N1577      H1609   1.036       .  S
N1578      C1585   1.354       .  A
N1578      C1586   1.360       .  A
N1579      C1584   1.352   1_556  A
N1579      C1583   1.349       .  A
N1579      H1610   1.042       .  S
N1580      C1587   1.344       .  A
N1580      C1588   1.343       .  A
C1581      C1589   1.389       .  A
C1581      C1597   1.436       .  A
C1582      C1598   1.440       .  A
C1582      C1590   1.386       .  A
C1583      C1591   1.395       .  A
C1583      C1600   1.424       .  A
C1584      C1599   1.402       .  A
C1584      C1592   1.379       .  A
C1585      C1597   1.433       .  A
C1585      C1593   1.390       .  A
C1586      C1600   1.427       .  A
C1586      C1594   1.384       .  A
C1587      C1595   1.387       .  A
C1587      C1598   1.407       .  A
C1588      C1596   1.382       .  A
C1588      C1599   1.395       .  A
C1589      C1590   1.378   1_556  A
C1589      H1601   1.081       .  S
C1590      H1602   1.080       .  S
C1591      C1592   1.367   1_556  A
C1591      H1603   1.078       .  S
C1592      H1604   1.082       .  S
C1593      C1594   1.379       .  A
C1593      H1605   1.082       .  S
C1594      H1606   1.082       .  S
C1595      C1596   1.377       .  A
C1595      H1607   1.080       .  S
C1596      H1608   1.082       .  S
C1597      C1909   1.507       .  S
C1598      C1886   1.542       .  S
C1599      C1896   1.484       .  S
C1600      C1916   1.509       .  S
O1611      C1619   1.246       .  A
O1612      C1620   1.264       .  A
O1613      C1621   1.270       .  A
O1614      C1622   1.238       .  A
O1615      C1621   1.264       .  A
O1616      C1622   1.255       .  A
O1617      C1620   1.283       .  A
O1618      C1619   1.254       .  A
C1619      C1949   1.514       .  S
C1620      C1856   1.491       .  S
C1621      C1849   1.479       .  S
C1622      C1906   1.486       .  S
O1623      C1636   1.276       .  A
O1623     Co1631   2.003       .  S
O1624      C1637   1.265       .  A
O1624     Co1632   2.002   1_655  S
O1625      C1638   1.271       .  A
O1625     Co1633   1.905       .  S
O1626      C1639   1.255       .  A
O1626     Co1634   1.983       .  S
O1627      C1639   1.269       .  A
O1627     Co1632   2.034   1_655  S
O1628      C1638   1.291       .  A
O1628     Co1631   2.069       .  S
O1629      C1636   1.285       .  A
O1629     Co1634   1.983       .  S
O1630      C1637   1.269       .  A
O1630     Co1633   2.015       .  S
Co1631     O1635   2.204   1_655  S
Co1632     O1635   2.077       .  S
Co1633     O1635   1.979   1_655  S
Co1634     O1635   1.997   1_655  S
C1636      C1919   1.498       .  S
C1637      C1866   1.519       .  S
C1638      C1959   1.496       .  S
C1639      C1876   1.510       .  S
N1640      C1645   1.355       .  A
N1640      C1644   1.352       .  A
N1640      H1672   1.040       .  S
N1641      C1648   1.347       .  A
N1641      C1649   1.354       .  A
N1642      C1647   1.348       .  A
N1642      C1646   1.356       .  A
N1642      H1673   1.041       .  S
N1643      C1650   1.352       .  A
N1643      C1651   1.349       .  A
C1644      C1652   1.389       .  A
C1644      C1660   1.419       .  A
C1645      C1661   1.413       .  A
C1645      C1653   1.384       .  A
C1646      C1654   1.385       .  A
C1646      C1663   1.414       .  A
C1647      C1662   1.414       .  A
C1647      C1655   1.391       .  A
C1648      C1660   1.417       .  A
C1648      C1656   1.388       .  A
C1649      C1663   1.417       .  A
C1649      C1657   1.384       .  A
C1650      C1658   1.386       .  A
C1650      C1661   1.413       .  A
C1651      C1659   1.387       .  A
C1651      C1662   1.411       .  A
C1652      C1653   1.378       .  A
C1652      H1664   1.082       .  S
C1653      H1665   1.082       .  S
C1654      C1655   1.369       .  A
C1656      C1657   1.379       .  A
C1656      H1668   1.082       .  S
C1657      H1669   1.082       .  S
C1658      C1659   1.373       .  A
C1658      H2378   1.082       .  S
C1659      H2379   1.082       .  S
C1660      C1979   1.491       .  S
C1661      C1966   1.495       .  S
C1662      C1846   1.478       .  S
C1663      C1859   1.514       .  S
H1670      C2366   1.082       .  S
H1671      C2367   1.082   1_545  S
N1674      C1679   1.355       .  A
N1674      C1678   1.352       .  A
N1674      H1706   1.039       .  S
N1675      C1682   1.351       .  A
N1675      C1683   1.351       .  A
N1676      C1681   1.358       .  A
N1676      C1680   1.359       .  A
N1676      H1707   1.039       .  S
N1677      C1684   1.356       .  A
N1677      C1685   1.356       .  A
C1678      C1686   1.388       .  A
C1678      C1694   1.416       .  A
C1679      C1695   1.419       .  A
C1679      C1687   1.387       .  A
C1680      C1688   1.383       .  A
C1680      C1697   1.422       .  A
C1681      C1696   1.431       .  A
C1681      C1689   1.388       .  A
C1682      C1694   1.412       .  A
C1682      C1690   1.387       .  A
C1683      C1697   1.414       .  A
C1683      C1691   1.389       .  A
C1684      C1692   1.385       .  A
C1684      C1695   1.424       .  A
C1685      C1693   1.385       .  A
C1685      C1696   1.422       .  A
C1686      C1687   1.375       .  A
C1686      H1698   1.081       .  S
C1687      H1699   1.082       .  S
C1688      C1689   1.378       .  A
C1688      H1700   1.082       .  S
C1689      H1701   1.076       .  S
C1690      C1691   1.361       .  A
C1690      H1702   1.082       .  S
C1691      H1703   1.082       .  S
C1692      C1693   1.373       .  A
C1692      H2412   1.077       .  S
C1693      H2413   1.082       .  S
C1694      C1999   1.486       .  S
C1695      C1989   1.509       .  S
C1696      C1869   1.518       .  S
C1697      C1879   1.498       .  S
H1704      C2400   1.077   1_545  S
H1705      C2401   1.082       .  S
N1708      C1713   1.349       .  A
N1708      C1712   1.357       .  A
N1708      H1740   1.042       .  S
N1709      C1716   1.353       .  A
N1709      C1717   1.348       .  A
N1710      C1715   1.356       .  A
N1710      C1714   1.353       .  A
N1710      H1741   1.039       .  S
N1711      C1718   1.355       .  A
N1711      C1719   1.357       .  A
C1712      C1720   1.389       .  A
C1712      C1728   1.422       .  A
C1713      C1729   1.412       .  A
C1713      C1721   1.386       .  A
C1714      C1722   1.386       .  A
C1714      C1731   1.418       .  A
C1715      C1730   1.423       .  A
C1715      C1723   1.389       .  A
C1716      C1728   1.415       .  A
C1716      C1724   1.385       .  A
C1717      C1731   1.414       .  A
C1717      C1725   1.388       .  A
C1718      C1726   1.387       .  A
C1718      C1729   1.421       .  A
C1719      C1727   1.387       .  A
C1719      C1730   1.425       .  A
C1720      C1721   1.382       .  A
C1720      H1732   1.082       .  S
C1721      H1733   1.082       .  S
C1722      C1723   1.378       .  A
C1722      H1734   1.082       .  S
C1723      H1735   1.081       .  S
C1724      C1725   1.377       .  A
C1724      H2444   1.082   1_545  S
C1725      H2445   1.083   1_545  S
C1726      C1727   1.372       .  A
C1726      H1738   1.082       .  S
C1727      H1739   1.081       .  S
C1728      C2009   1.515       .  S
C1729      C2019   1.493       .  S
C1730      C1839   1.507       .  S
C1731      C1829   1.493       .  S
H1736      C2432   1.082       .  S
H1737      C2433   1.083       .  S
N1742      C1747   1.358       .  A
N1742      C1746   1.350       .  A
N1742      H1774   1.041       .  S
N1743      C1750   1.354       .  A
N1743      C1751   1.358       .  A
N1744      C1749   1.355       .  A
N1744      C1748   1.357       .  A
N1744      H1775   1.033       .  S
N1745      C1752   1.349       .  A
N1745      C1753   1.345       .  A
C1746      C1754   1.388       .  A
C1746      C1762   1.414       .  A
C1747      C1763   1.419       .  A
C1747      C1755   1.387       .  A
C1748      C1756   1.389       .  A
C1748      C1765   1.430       .  A
C1749      C1764   1.427       .  A
C1749      C1757   1.387       .  A
C1750      C1762   1.426       .  A
C1750      C1758   1.388   1_545  A
C1751      C1765   1.431       .  A
C1751      C1759   1.387   1_545  A
C1752      C1760   1.383       .  A
C1752      C1763   1.405       .  A
C1753      C1761   1.391       .  A
C1753      C1764   1.415       .  A
C1754      C1755   1.377       .  A
C1754      H1766   1.082       .  S
C1755      H1767   1.082       .  S
C1756      C1757   1.379       .  A
C1756      H1768   1.081       .  S
C1757      H1769   1.082       .  S
C1758      C1759   1.370       .  A
C1758      H2478   1.082       .  S
C1759      H2479   1.082       .  S
C1760      C1761   1.369       .  A
C1760      H1772   1.082       .  S
C1761      H1773   1.082       .  S
C1762      C2029   1.489       .  S
C1763      C2039   1.501       .  S
C1764      C1816   1.489       .  S
C1765      C1806   1.517       .  S
H1770      C2466   1.082       .  S
H1771      C2467   1.082       .  S
O1776      C1784   1.263       .  A
O1776     Co1796   1.988       .  S
O1777      C1785   1.283       .  A
O1777     Co1797   2.081       .  S
O1778     Co1798   1.976   1_455  S
O1779      C1787   1.262       .  A
O1779     Co1799   1.911       .  S
O1780      C1786   1.269       .  A
O1780     Co1797   2.024       .  S
O1781      C1787   1.282       .  A
O1781     Co1796   2.091       .  S
O1782      C1785   1.257       .  A
O1783      C1784   1.255       .  A
O1783     Co1798   1.971       .  S
C1784      C1899   1.453       .  S
C1785      C1836   1.506       .  S
C1786      C1889   1.510       .  S
C1787      C1819   1.475       .  S
O1788      C1801   1.274       .  A
O1788     Co1796   1.961       .  S
O1789      C1802   1.255       .  A
O1789     Co1797   1.954       .  S
O1790      C1803   1.281       .  A
O1790     Co1798   2.042       .  S
O1791      C1804   1.268       .  A
O1792      C1804   1.246       .  A
O1792     Co1797   1.951       .  S
O1793      C1803   1.278       .  A
O1793     Co1796   1.990       .  S
O1794      C1801   1.283       .  A
O1794     Co1799   2.067       .  S
O1795     Co1798   2.033   1_455  S
Co1796     O1800   2.044       .  S
Co1798     O1800   2.027       .  S
Co1799     O1800   2.004       .  S
C1801      C1809   1.518       .  S
C1802      C1929   1.477       .  S
C1803      C1939   1.526       .  S
C1804      C1826   1.471       .  S
C1805      C1806   1.409   1_565  A
C1805      C2518   1.404       .  A
C1805     Br1812   1.942       .  S
C1806      C1807   1.420   1_545  A
C1807      C2516   1.427       .  A
C1807     Br1814   1.928   1_565  S
C1808      C2515   1.427       .  A
C1808      C1809   1.418       .  A
C1808     Br1813   1.926       .  S
C1809      C1810   1.423       .  A
C1810      C2513   1.404       .  A
C1810     Br1811   1.923       .  S
C1815      C1816   1.415       .  A
C1815      C1820   1.409       .  A
C1815     Br1822   1.928       .  S
C1816      C1817   1.406       .  A
C1817      C1818   1.400       .  A
C1817     Br1824   1.928       .  S
C1818      C1819   1.411       .  A
C1818     Br1823   1.920       .  S
C1819      C1820   1.406       .  A
C1820     Br1821   1.928       .  S
C1825      C1826   1.405       .  A
C1825      C1830   1.403       .  A
C1825     Br1832   1.929       .  S
C1826      C1827   1.415       .  A
C1827      C2536   1.408       .  A
C1828      C2535   1.408   1_545  A
C1828      C1829   1.409       .  A
C1828     Br1833   1.926       .  S
C1829      C2538   1.410   1_545  A
C1830      C2537   1.410       .  A
C1830     Br1831   1.924       .  S
C1835      C1836   1.415       .  A
C1835      C1840   1.404       .  A
C1835     Br1842   1.913       .  S
C1836      C1837   1.412       .  A
C1837      C1838   1.420       .  A
C1837     Br1844   1.913       .  S
C1838      C1839   1.417       .  A
C1838     Br1843   1.928       .  S
C1839      C1840   1.406       .  A
C1840     Br1841   1.934       .  S
C1845      C2554   1.401       .  A
C1845      C1850   1.395       .  A
C1846      C2553   1.401       .  A
C1846      C1847   1.410       .  A
C1847      C2556   1.408       .  A
C1847     Br1854   1.930       .  S
C1848      C2555   1.408   1_545  A
C1848      C1849   1.413       .  A
C1848     Br1853   1.930       .  S
C1849      C1850   1.412   1_545  A
C1855      C1856   1.405       .  A
C1855      C1860   1.414       .  A
C1855     Br1862   1.927       .  S
C1856      C1857   1.415       .  A
C1857      C1858   1.411       .  A
C1858      C1859   1.417       .  A
C1859      C1860   1.423       .  A
C1860     Br1861   1.931       .  S
C1865      C1866   1.420       .  A
C1865      C1870   1.412       .  A
C1865     Br1872   1.937       .  S
C1866      C2575   1.420       .  A
C1867      C2574   1.420       .  A
C1867      C1868   1.422       .  A
C1867     Br1874   1.918       .  S
C1868      C1869   1.414       .  A
C1868     Br1873   1.930       .  S
C1869      C2578   1.417       .  A
C1870      C2577   1.417   1_545  A
C1870     Br1871   1.931       .  S
C1875      C1876   1.421       .  A
C1875      C1880   1.403       .  A
C1875     Br1882   1.912       .  S
C1876      C1877   1.421       .  A
C1877      C1878   1.419       .  A
C1877     Br1884   1.930       .  S
C1878      C1879   1.411       .  A
C1878     Br1883   1.926       .  S
C1879      C1880   1.402       .  A
C1880     Br1881   1.938       .  S
C1885      C1886   1.417       .  A
C1885      C1890   1.406       .  A
C1885     Br1892   1.932       .  S
C1886      C1887   1.412       .  A
C1887      C1888   1.418       .  A
C1887     Br1894   1.935       .  S
C1888      C1889   1.428       .  A
C1888     Br1893   1.929       .  S
C1889      C1890   1.421       .  A
C1890     Br1891   1.932       .  S
C1895      C1896   1.415       .  A
C1895      C1900   1.402       .  A
C1895     Br1902   1.926       .  S
C1896      C1897   1.415       .  A
C1897      C1898   1.394       .  A
C1897     Br1904   1.930       .  S
C1898      C1899   1.402       .  A
C1898     Br1903   1.929       .  S
C1899      C1900   1.401       .  A
C1900     Br1901   1.927       .  S
C1905      C1906   1.408       .  A
C1905      C1910   1.410       .  A
C1905     Br1912   1.927       .  S
C1906      C1907   1.411       .  A
C1907      C1908   1.414       .  A
C1907     Br1914   1.927       .  S
C1908      C1909   1.415       .  A
C1908     Br1913   1.930       .  S
C1909      C1910   1.415       .  A
C1910     Br1911   1.931       .  S
C1915      C1916   1.406       .  A
C1915      C1920   1.398       .  A
C1915     Br1922   1.935       .  S
C1916      C1917   1.421       .  A
C1917      C1918   1.425       .  A
C1917     Br1924   1.926       .  S
C1918      C1919   1.414       .  A
C1918     Br1923   1.925       .  S
C1919      C1920   1.417       .  A
C1920     Br1921   1.935       .  S
C1925      C1926   1.422       .  A
C1925      C1930   1.406       .  A
C1925     Br1932   1.934       .  S
C1926      C1927   1.414       .  A
C1927      C1928   1.409       .  A
C1927     Br1934   1.933       .  S
C1928      C1929   1.416       .  A
C1928     Br1933   1.930       .  S
C1929      C1930   1.401       .  A
C1930     Br1931   1.918       .  S
C1935      C1936   1.412       .  A
C1935      C1940   1.421       .  A
C1935     Br1942   1.930       .  S
C1936      C1937   1.408       .  A
C1937      C1938   1.414       .  A
C1937     Br1944   1.937       .  S
C1938      C1939   1.428       .  A
C1938     Br1943   1.926       .  S
C1939      C1940   1.423       .  A
C1940     Br1941   1.930       .  S
C1945      C1946   1.406       .  A
C1945      C1950   1.408       .  A
C1945     Br1952   1.938       .  S
C1946      C2655   1.405   1_545  A
C1946      C2274   1.493   1_545  S
C1947      C2654   1.405       .  A
C1947      C2656   1.417       .  A
C1947     Br1954   1.931       .  S
C1948      C2655   1.417   1_545  A
C1948      C1949   1.428       .  A
C1948     Br2661   1.933   1_545  S
C1949      C1950   1.430       .  A
C1950     Br1951   1.942       .  S
Br1953     C2656   1.933       .  S
C1955      C1956   1.409       .  A
C1955      C1960   1.409       .  A
C1955     Br1962   1.936       .  S
C1956      C2665   1.410   1_545  A
C1956      C2271   1.495       .  S
C1957      C2664   1.410       .  A
C1957      C2666   1.411       .  A
C1957     Br1964   1.932       .  S
C1958      C2665   1.411   1_545  A
C1958      C1959   1.416       .  A
C1958     Br2671   1.930   1_545  S
C1959      C1960   1.422       .  A
C1960     Br1961   1.935       .  S
Br1963     C2666   1.930       .  S
C1965      C1966   1.411       .  A
C1965      C2678   1.414       .  A
C1965     Br1972   1.924       .  S
C1966      C2675   1.406       .  A
C1967      C2674   1.406   1_545  A
C1967      C1968   1.408       .  A
C1967     Br1974   1.939   1_545  S
C1968      C1969   1.426       .  A
C1968     Br1973   1.933       .  S
C1969      C1970   1.408       .  A
C1970      C2673   1.414       .  A
C1970     Br2679   1.927       .  S
Br1971     C2678   1.927       .  S
C1975      C1976   1.422       .  A
C1975      C1980   1.406       .  A
C1975     Br1982   1.937       .  S
C1976      C1977   1.412       .  A
C1977      C1978   1.408       .  A
C1977     Br1984   1.930       .  S
C1978      C1979   1.411       .  A
C1978     Br1983   1.931       .  S
C1979      C1980   1.408       .  A
C1980     Br1981   1.934       .  S
C1985      C1986   1.417       .  A
C1985      C2698   1.411       .  A
C1985     Br1992   1.932       .  S
C1986      C1987   1.422   1_545  A
C1987      C1988   1.413       .  A
C1987     Br1994   1.938       .  S
C1988      C2697   1.414       .  A
C1988     Br1993   1.931       .  S
C1989      C2696   1.414       .  A
C1989      C1990   1.412       .  A
C1990      C2693   1.411       .  A
C1990     Br1991   1.929       .  S
C1995      C1996   1.410       .  A
C1995      C2000   1.400       .  A
C1995     Br2002   1.933       .  S
C1996      C1997   1.405       .  A
C1997      C1998   1.403       .  A
C1997     Br2004   1.931       .  S
C1998      C1999   1.410       .  A
C1998     Br2003   1.928       .  S
C1999      C2000   1.412       .  A
C2000     Br2001   1.933       .  S
C2005      C2006   1.416       .  A
C2005      C2010   1.408       .  A
C2005     Br2012   1.931       .  S
C2006      C2007   1.422       .  A
C2007      C2716   1.415       .  A
C2007     Br2722   1.924       .  S
C2008      C2715   1.415   1_545  A
C2008      C2009   1.414       .  A
C2008     Br2013   1.933       .  S
C2009      C2718   1.416   1_545  A
C2010      C2717   1.416       .  A
C2010     Br2011   1.923       .  S
Br2014     C2715   1.924       .  S
C2015      C2016   1.418       .  A
C2015      C2020   1.399       .  A
C2015     Br2022   1.908       .  S
C2016      C2017   1.417       .  A
C2017      C2018   1.420       .  A
C2017     Br2024   1.923       .  S
C2018      C2019   1.412       .  A
C2018     Br2023   1.927       .  S
C2019      C2020   1.398       .  A
C2020     Br2021   1.935       .  S
C2025      C2026   1.415       .  A
C2025      C2738   1.420       .  A
C2025     Br2032   1.926       .  S
C2026      C2027   1.415       .  A
C2027      C2736   1.391       .  A
C2027     Br2034   1.905       .  S
C2028      C2735   1.391   1_545  A
C2028      C2029   1.396       .  A
C2028     Br2033   1.937       .  S
C2029      C2030   1.414       .  A
C2030      C2733   1.420   1_545  A
C2030     Br2031   1.925       .  S
C2035      C2036   1.430       .  A
C2035      C2040   1.410       .  A
C2035     Br2042   1.934       .  S
C2036      C2037   1.411       .  A
C2037      C2038   1.408       .  A
C2037     Br2044   1.928       .  S
C2038      C2039   1.416       .  A
C2038     Br2043   1.929       .  S
C2039      C2040   1.406       .  A
C2040     Br2041   1.936       .  S
C2045      C2046   1.404       .  A
C2045      C2050   1.393       .  A
C2045     Br2052   1.930       .  S
C2046      C2047   1.424       .  A
C2047      C2048   1.423       .  A
C2047     Br2054   1.928       .  S
C2048      C2049   1.411       .  A
C2048     Br2053   1.923       .  S
C2049      C2050   1.412       .  A
C2050     Br2051   1.916       .  S
C2055      C2056   1.412       .  A
C2055      C2060   1.423       .  A
C2055     Br2062   1.929       .  S
C2056      C2057   1.411       .  A
C2057      C2058   1.403       .  A
C2057     Br2064   1.930       .  S
C2058      C2059   1.411       .  A
C2058     Br2063   1.922       .  S
C2059      C2060   1.426       .  A
C2060     Br2061   1.929       .  S
C2065      C2066   1.420       .  A
C2065      C2070   1.428       .  A
C2065     Br2072   1.925       .  S
C2066      C2067   1.401       .  A
C2067      C2068   1.390       .  A
C2067     Br2074   1.934       .  S
C2068      C2069   1.407       .  A
C2068     Br2073   1.893       .  S
C2069      C2070   1.414       .  A
C2070     Br2071   1.921       .  S
C2075      C2076   1.412       .  A
C2075      C2080   1.409       .  A
C2075     Br2082   1.936       .  S
C2076      C2077   1.423       .  A
C2077      C2078   1.416       .  A
C2077     Br2084   1.927       .  S
C2078      C2079   1.406       .  A
C2078     Br2083   1.925       .  S
C2079      C2080   1.423       .  A
C2080     Br2081   1.928       .  S
C2085      C2086   1.422       .  A
C2085      C2090   1.406       .  A
C2085     Br2092   1.918       .  S
C2086      C2087   1.411       .  A
C2087      C2088   1.417       .  A
C2087     Br2094   1.925       .  S
C2088      C2089   1.415       .  A
C2088     Br2093   1.928   1_545  S
C2089      C2090   1.404       .  A
C2090     Br2091   1.939       .  S
C2095      C2096   1.418       .  A
C2095      C2100   1.406       .  A
C2095     Br2810   1.931   1_545  S
C2096      C2097   1.413       .  A
C2097      C2098   1.394       .  A
C2097     Br2104   1.935       .  S
C2098      C2099   1.406       .  A
C2098     Br2103   1.930       .  S
C2099      C2100   1.403       .  A
C2100     Br2809   1.927       .  S
Br2101     C2808   1.927       .  S
Br2102     C2803   1.931       .  S
C2105      C2106   1.412       .  A
C2105      C2110   1.415       .  A
C2105     Br2820   1.934       .  S
C2106      C2107   1.416       .  A
C2107      C2108   1.399       .  A
C2107     Br2114   1.928       .  S
C2108      C2109   1.402       .  A
C2108     Br2113   1.928       .  S
C2109      C2110   1.428       .  A
C2110     Br2111   1.935       .  S
Br2112     C2813   1.934       .  S
C2115      C2116   1.404       .  A
C2115      C2120   1.396       .  A
C2115     Br2122   1.938       .  S
C2116      C2117   1.413       .  A
C2117      C2118   1.420       .  A
C2117     Br2124   1.925       .  S
C2118      C2119   1.414       .  A
C2118     Br2123   1.926       .  S
C2119      C2120   1.410       .  A
C2120     Br2121   1.910       .  S
N2125      C2130   1.351       .  A
N2125      H2157   1.042       .  S
N2126      C2134   1.348       .  A
N2127      C2131   1.356       .  A
N2127      H2158   1.041       .  S
N2128      C2136   1.347       .  A
C2129      C2137   1.386       .  A
C2129      C2145   1.409       .  A
C2130      C2146   1.418       .  A
C2130      C2138   1.390   1_545  A
C2131      C2139   1.384       .  A
C2131      C2148   1.419       .  A
C2132      C2147   1.427       .  A
C2132      C2140   1.391   1_545  A
C2133      C2145   1.407       .  A
C2133      C2141   1.387       .  A
C2134      C2148   1.407       .  A
C2134      C2142   1.385       .  A
C2135      C2143   1.384       .  A
C2135      C2146   1.409       .  A
C2136      C2144   1.390       .  A
C2136      C2147   1.416       .  A
C2137      H2149   1.082       .  S
C2138      H2150   1.082       .  S
C2139      H2151   1.082       .  S
C2140      H2152   1.082       .  S
C2141      H2153   1.082       .  S
C2142      H2154   1.080       .  S
C2143      H2155   1.082       .  S
C2144      H2156   1.082       .  S
C2145      C2804   1.486       .  S
C2146      C2824   1.492   1_545  S
C2147      C2814   1.502   1_545  S
C2148      C2797   1.497       .  S
N2159      C2164   1.357       .  A
N2159      C2163   1.357       .  A
N2159      H2191   1.033       .  S
N2160      C2168   1.356   1_455  A
N2161      C2166   1.354       .  A
N2161      C2165   1.351       .  A
N2161      H2192   1.042       .  S
N2162      C2170   1.355   1_455  A
C2163      C2171   1.390       .  A
C2163      C2179   1.429       .  A
C2164      C2180   1.420       .  A
C2164      C2172   1.384       .  A
C2165      C2173   1.382       .  A
C2165      C2182   1.406       .  A
C2166      C2181   1.421       .  A
C2166      C2174   1.391       .  A
C2167      C2179   1.435       .  A
C2167      C2175   1.392       .  A
C2168      C2182   1.416       .  A
C2168      C2176   1.380       .  A
C2169      C2177   1.386       .  A
C2169      C2180   1.425       .  A
C2170      C2178   1.388       .  A
C2170      C2181   1.428       .  A
C2171      C2172   1.369       .  A
C2171      H2183   1.081       .  S
C2172      H2184   1.080       .  S
C2173      C2174   1.376       .  A
C2173      H2185   1.082       .  S
C2174      H2186   1.082       .  S
C2175      H2187   1.081       .  S
C2176      H2188   1.081       .  S
C2177      H2189   1.082       .  S
C2178      H2190   1.082       .  S
C2179      C2754   1.509       .  S
C2180      C2774   1.501       .  S
C2181      C2784   1.515       .  S
C2182      C2764   1.504       .  S
O2193      C2201   1.251       .  A
O2193     Co2213   1.949       .  S
O2194      C2202   1.277       .  A
O2194     Co2214   1.952       .  S
O2195      C2203   1.278       .  A
O2195     Co2215   2.053       .  S
O2196      C2204   1.263       .  A
O2196     Co2216   2.048       .  S
O2197      C2203   1.261       .  A
O2197     Co2214   1.990       .  S
O2198      C2204   1.240       .  A
O2198     Co2213   1.951       .  S
O2199      C2202   1.287       .  A
O2199     Co2216   2.062       .  S
O2200      C2201   1.281       .  A
O2200     Co2215   2.055       .  S
C2201      C2787   1.500       .  S
C2202      C2724   1.503       .  S
C2203      C2777   1.507       .  S
C2204      C2744   1.506       .  S
O2205      C2218   1.283       .  A
O2205     Co2213   2.062       .  S
O2206      C2219   1.272       .  A
O2206     Co2214   2.028       .  S
O2207      C2220   1.256       .  A
O2207     Co2215   1.978       .  S
O2208      C2221   1.260       .  A
O2208     Co2216   1.925       .  S
O2209      C2221   1.285       .  A
O2209     Co2214   2.092       .  S
O2210      C2220   1.267       .  A
O2210     Co2213   2.023       .  S
O2211      C2218   1.263       .  A
O2211     Co2216   1.962       .  S
O2212      C2219   1.250       .  A
O2212     Co2215   1.963       .  S
Co2213     O2217   2.043       .  S
Co2214     O2217   2.060       .  S
Co2215     O2217   2.063       .  S
Co2216     O2217   2.036       .  S
C2218      C2734   1.497       .  S
C2219      C2817   1.503       .  S
C2220      C2827   1.493       .  S
C2221      C2714   1.509       .  S
O2222      C2230   1.258       .  A
O2222     Co2242   1.976       .  S
O2223      C2231   1.277       .  A
O2223     Co2243   1.923       .  S
O2224      C2232   1.271       .  A
O2224     Co2244   2.026       .  S
O2225      C2233   1.238       .  A
O2225     Co2245   1.953       .  S
O2226      C2232   1.263       .  A
O2226     Co2243   1.990       .  S
O2227      C2233   1.258       .  A
O2227     Co2242   2.000       .  S
O2228      C2231   1.289       .  A
O2228     Co2245   2.042       .  S
O2229      C2230   1.274       .  A
O2229     Co2244   2.043       .  S
C2230      C2767   1.517       .  S
C2231      C2684   1.488       .  S
C2232      C2757   1.497       .  S
C2233      C2704   1.461       .  S
O2234      C2247   1.283       .  A
O2234     Co2242   2.061       .  S
O2235      C2248   1.270       .  A
O2235     Co2243   2.044       .  S
O2236      C2249   1.248       .  A
O2236     Co2244   1.952       .  S
O2237      C2250   1.234       .  A
O2237     Co2245   1.935       .  S
O2238      C2250   1.276       .  A
O2238     Co2243   2.074       .  S
O2239      C2249   1.266       .  A
O2239     Co2242   2.011       .  S
O2240      C2247   1.254       .  A
O2240     Co2245   1.939       .  S
O2241      C2248   1.251       .  A
O2241     Co2244   1.966       .  S
Co2242     O2246   2.089       .  S
Co2243     O2246   2.014       .  S
Co2244     O2246   2.038       .  S
Co2245     O2246   2.039       .  S
C2247      C2694   1.499       .  S
C2248      C2794   1.498       .  S
C2249      C2807   1.461       .  S
C2250      C2677   1.493       .  S
N2251      C2256   1.359   1_556  A
N2251      C2255   1.357   1_565  A
N2251      H2283   1.041       .  S
N2252      C2259   1.346       .  A
N2252      C2260   1.350       .  A
N2253      C2258   1.349   1_556  A
N2253      C2257   1.352       .  A
N2253      H2284   1.043       .  S
N2254      C2261   1.353       .  A
N2254      C2262   1.352       .  A
C2255      C2263   1.388       .  A
C2255      C2271   1.424       .  A
C2256      C2272   1.421       .  A
C2256      C2264   1.385   1_565  A
C2257      C2265   1.382       .  A
C2257      C2274   1.403       .  A
C2258      C2273   1.413       .  A
C2258      C2266   1.390       .  A
C2259      C2271   1.415   1_565  A
C2260      C2274   1.404       .  A
C2261      C2269   1.385       .  A
C2261      C2272   1.417       .  A
C2262      C2270   1.387       .  A
C2262      C2273   1.420       .  A
C2263      C2264   1.377   1_556  A
C2263      H2275   1.082       .  S
C2264      H2276   1.082       .  S
C2265      C2266   1.376   1_556  A
C2265      H2277   1.082       .  S
C2266      H2278   1.082       .  S
C2267      C2268   1.375       .  A
C2267      H2279   1.082       .  S
C2268      H2280   1.082       .  S
C2269      C2270   1.380       .  A
C2269      H2281   1.082       .  S
C2270      H2282   1.081       .  S
C2272      C2644   1.511       .  S
C2273      C2634   1.528       .  S
N2285      C2290   1.366   1_556  A
N2285      C2289   1.354       .  A
N2285      H2317   1.036       .  S
N2286      C2293   1.354       .  A
N2286      C2294   1.360       .  A
N2287      C2292   1.352   1_556  A
N2287      C2291   1.349       .  A
N2287      H2318   1.042       .  S
N2288      C2295   1.344       .  A
N2288      C2296   1.343       .  A
C2289      C2297   1.389       .  A
C2289      C2305   1.436       .  A
C2290      C2306   1.440       .  A
C2290      C2298   1.386       .  A
C2291      C2299   1.395       .  A
C2291      C2308   1.424       .  A
C2292      C2307   1.402       .  A
C2292      C2300   1.379       .  A
C2293      C2305   1.433       .  A
C2293      C2301   1.390       .  A
C2294      C2308   1.427       .  A
C2294      C2302   1.384       .  A
C2295      C2303   1.387       .  A
C2295      C2306   1.407       .  A
C2296      C2304   1.382       .  A
C2296      C2307   1.395       .  A
C2297      C2298   1.378   1_556  A
C2297      H2309   1.081       .  S
C2298      H2310   1.080       .  S
C2299      C2300   1.367   1_556  A
C2299      H2311   1.078       .  S
C2300      H2312   1.082       .  S
C2301      C2302   1.379       .  A
C2301      H2313   1.082       .  S
C2302      H2314   1.082       .  S
C2303      C2304   1.377       .  A
C2303      H2315   1.080       .  S
C2304      H2316   1.082       .  S
C2305      C2617   1.507       .  S
C2306      C2594   1.542       .  S
C2307      C2604   1.484       .  S
C2308      C2624   1.509       .  S
O2319      C2327   1.246       .  A
O2320      C2328   1.264       .  A
O2321      C2329   1.270       .  A
O2322      C2330   1.238       .  A
O2323      C2329   1.264       .  A
O2324      C2330   1.255       .  A
O2325      C2328   1.283       .  A
O2326      C2327   1.254       .  A
C2327      C2657   1.514       .  S
C2328      C2564   1.491       .  S
C2329      C2557   1.479       .  S
C2330      C2614   1.486       .  S
O2331      C2344   1.276       .  A
O2331     Co2339   2.003       .  S
O2332      C2345   1.265       .  A
O2332     Co2340   2.002   1_655  S
O2333      C2346   1.271       .  A
O2333     Co2341   1.905       .  S
O2334      C2347   1.255       .  A
O2334     Co2342   1.983       .  S
O2335      C2347   1.269       .  A
O2335     Co2340   2.034   1_655  S
O2336      C2346   1.291       .  A
O2336     Co2339   2.069       .  S
O2337      C2344   1.285       .  A
O2337     Co2342   1.983       .  S
O2338      C2345   1.269       .  A
O2338     Co2341   2.015       .  S
Co2339     O2343   2.204   1_655  S
Co2340     O2343   2.077       .  S
Co2341     O2343   1.979   1_655  S
Co2342     O2343   1.997   1_655  S
C2344      C2627   1.498       .  S
C2345      C2574   1.519       .  S
C2346      C2667   1.496       .  S
C2347      C2584   1.510       .  S
N2348      C2353   1.355       .  A
N2348      C2352   1.352       .  A
N2348      H2380   1.040       .  S
N2349      C2356   1.347       .  A
N2349      C2357   1.354       .  A
N2350      C2355   1.348       .  A
N2350      C2354   1.356       .  A
N2350      H2381   1.041       .  S
N2351      C2358   1.352       .  A
N2351      C2359   1.349       .  A
C2352      C2360   1.389       .  A
C2352      C2368   1.419       .  A
C2353      C2369   1.413       .  A
C2353      C2361   1.384       .  A
C2354      C2362   1.385       .  A
C2354      C2371   1.414       .  A
C2355      C2370   1.414       .  A
C2355      C2363   1.391       .  A
C2356      C2368   1.417       .  A
C2356      C2364   1.388       .  A
C2357      C2371   1.417       .  A
C2357      C2365   1.384       .  A
C2358      C2366   1.386   1_565  A
C2358      C2369   1.413       .  A
C2359      C2367   1.387       .  A
C2359      C2370   1.411       .  A
C2360      C2361   1.378       .  A
C2360      H2372   1.082       .  S
C2361      H2373   1.082       .  S
C2362      C2363   1.369       .  A
C2364      C2365   1.379       .  A
C2364      H2376   1.082       .  S
C2365      H2377   1.082       .  S
C2366      C2367   1.373   1_545  A
C2368      C2687   1.491       .  S
C2369      C2674   1.495       .  S
C2370      C2554   1.478       .  S
C2371      C2567   1.514       .  S
N2382      C2387   1.355       .  A
N2382      C2386   1.352       .  A
N2382      H2414   1.039       .  S
N2383      C2390   1.351       .  A
N2383      C2391   1.351       .  A
N2384      C2389   1.358       .  A
N2384      C2388   1.359       .  A
N2384      H2415   1.039       .  S
N2385      C2392   1.356       .  A
N2385      C2393   1.356       .  A
C2386      C2394   1.388       .  A
C2386      C2402   1.416       .  A
C2387      C2403   1.419       .  A
C2387      C2395   1.387       .  A
C2388      C2396   1.383       .  A
C2388      C2405   1.422       .  A
C2389      C2404   1.431       .  A
C2389      C2397   1.388       .  A
C2390      C2402   1.412       .  A
C2390      C2398   1.387       .  A
C2391      C2405   1.414       .  A
C2391      C2399   1.389       .  A
C2392      C2400   1.385       .  A
C2392      C2403   1.424       .  A
C2393      C2401   1.385   1_565  A
C2393      C2404   1.422       .  A
C2394      C2395   1.375       .  A
C2394      H2406   1.081       .  S
C2395      H2407   1.082       .  S
C2396      C2397   1.378       .  A
C2396      H2408   1.082       .  S
C2397      H2409   1.076       .  S
C2398      C2399   1.361       .  A
C2398      H2410   1.082       .  S
C2399      H2411   1.082       .  S
C2400      C2401   1.373   1_565  A
C2402      C2707   1.486       .  S
C2403      C2697   1.509       .  S
C2404      C2577   1.518       .  S
C2405      C2587   1.498       .  S
N2416      C2421   1.349       .  A
N2416      C2420   1.357       .  A
N2416      H2448   1.042       .  S
N2417      C2424   1.353       .  A
N2417      C2425   1.348       .  A
N2418      C2423   1.356       .  A
N2418      C2422   1.353       .  A
N2418      H2449   1.039       .  S
N2419      C2426   1.355       .  A
N2419      C2427   1.357       .  A
C2420      C2428   1.389       .  A
C2420      C2436   1.422       .  A
C2421      C2437   1.412       .  A
C2421      C2429   1.386       .  A
C2422      C2430   1.386       .  A
C2422      C2439   1.418       .  A
C2423      C2438   1.423       .  A
C2423      C2431   1.389       .  A
C2424      C2436   1.415       .  A
C2424      C2432   1.385       .  A
C2425      C2439   1.414       .  A
C2425      C2433   1.388       .  A
C2426      C2434   1.387       .  A
C2426      C2437   1.421       .  A
C2427      C2435   1.387       .  A
C2427      C2438   1.425       .  A
C2428      C2429   1.382       .  A
C2428      H2440   1.082       .  S
C2429      H2441   1.082       .  S
C2430      C2431   1.378       .  A
C2430      H2442   1.082       .  S
C2431      H2443   1.081       .  S
C2432      C2433   1.377       .  A
C2434      C2435   1.372       .  A
C2434      H2446   1.082       .  S
C2435      H2447   1.081       .  S
C2436      C2717   1.515       .  S
C2437      C2727   1.493       .  S
C2438      C2547   1.507       .  S
C2439      C2537   1.493       .  S
N2450      C2455   1.358       .  A
N2450      C2454   1.350       .  A
N2450      H2482   1.041       .  S
N2451      C2458   1.354       .  A
N2451      C2459   1.358       .  A
N2452      C2457   1.355       .  A
N2452      C2456   1.357       .  A
N2452      H2483   1.033       .  S
N2453      C2460   1.349       .  A
N2453      C2461   1.345       .  A
C2454      C2462   1.388       .  A
C2454      C2470   1.414       .  A
C2455      C2471   1.419       .  A
C2455      C2463   1.387       .  A
C2456      C2464   1.389       .  A
C2456      C2473   1.430       .  A
C2457      C2472   1.427       .  A
C2457      C2465   1.387       .  A
C2458      C2470   1.426       .  A
C2458      C2466   1.388       .  A
C2459      C2473   1.431       .  A
C2459      C2467   1.387       .  A
C2460      C2468   1.383       .  A
C2460      C2471   1.405       .  A
C2461      C2469   1.391       .  A
C2461      C2472   1.415       .  A
C2462      C2463   1.377       .  A
C2462      H2474   1.082       .  S
C2463      H2475   1.082       .  S
C2464      C2465   1.379       .  A
C2464      H2476   1.081       .  S
C2465      H2477   1.082       .  S
C2466      C2467   1.370       .  A
C2468      C2469   1.369       .  A
C2468      H2480   1.082       .  S
C2469      H2481   1.082       .  S
C2470      C2737   1.489       .  S
C2471      C2747   1.501       .  S
C2472      C2524   1.489       .  S
C2473      C2514   1.517       .  S
O2484      C2492   1.263       .  A
O2484     Co2504   1.988       .  S
O2485      C2493   1.283       .  A
O2485     Co2505   2.081       .  S
O2486     Co2506   1.976   1_455  S
O2487      C2495   1.262       .  A
O2487     Co2507   1.911       .  S
O2488      C2494   1.269       .  A
O2488     Co2505   2.024       .  S
O2489      C2495   1.282       .  A
O2489     Co2504   2.091       .  S
O2490      C2493   1.257       .  A
O2491      C2492   1.255       .  A
O2491     Co2506   1.971       .  S
C2492      C2607   1.453       .  S
C2493      C2544   1.506       .  S
C2494      C2597   1.510       .  S
C2495      C2527   1.475       .  S
O2496      C2509   1.274       .  A
O2496     Co2504   1.961       .  S
O2497      C2510   1.255       .  A
O2497     Co2505   1.954       .  S
O2498      C2511   1.281       .  A
O2498     Co2506   2.042       .  S
O2499      C2512   1.268       .  A
O2500      C2512   1.246       .  A
O2500     Co2505   1.951       .  S
O2501      C2511   1.278       .  A
O2501     Co2504   1.990       .  S
O2502      C2509   1.283       .  A
O2502     Co2507   2.067       .  S
O2503     Co2506   2.033   1_455  S
Co2504     O2508   2.044       .  S
Co2506     O2508   2.027       .  S
Co2507     O2508   2.004       .  S
C2509      C2517   1.518       .  S
C2510      C2637   1.477       .  S
C2511      C2647   1.526       .  S
C2512      C2534   1.471       .  S
C2513      C2514   1.409       .  A
C2513     Br2520   1.942       .  S
C2514      C2515   1.420       .  A
C2515     Br2522   1.928       .  S
C2516      C2517   1.418       .  A
C2516     Br2521   1.926       .  S
C2517      C2518   1.423       .  A
C2518     Br2519   1.923       .  S
C2523      C2524   1.415       .  A
C2523      C2528   1.409       .  A
C2523     Br2530   1.928       .  S
C2524      C2525   1.406       .  A
C2525      C2526   1.400       .  A
C2525     Br2532   1.928       .  S
C2526      C2527   1.411       .  A
C2526     Br2531   1.920       .  S
C2527      C2528   1.406       .  A
C2528     Br2529   1.928       .  S
C2533      C2534   1.405       .  A
C2533      C2538   1.403       .  A
C2533     Br2540   1.929       .  S
C2534      C2535   1.415       .  A
C2536      C2537   1.409       .  A
C2536     Br2541   1.926       .  S
C2538     Br2539   1.924   1_565  S
C2543      C2544   1.415       .  A
C2543      C2548   1.404       .  A
C2543     Br2550   1.913       .  S
C2544      C2545   1.412       .  A
C2545      C2546   1.420       .  A
C2545     Br2552   1.913       .  S
C2546      C2547   1.417       .  A
C2546     Br2551   1.928       .  S
C2547      C2548   1.406       .  A
C2548     Br2549   1.934       .  S
C2553      C2558   1.395       .  A
C2554      C2555   1.410       .  A
C2555     Br2562   1.930       .  S
C2556      C2557   1.413       .  A
C2556     Br2561   1.930       .  S
C2557      C2558   1.412       .  A
C2563      C2564   1.405       .  A
C2563      C2568   1.414       .  A
C2563     Br2570   1.927       .  S
C2564      C2565   1.415       .  A
C2565      C2566   1.411       .  A
C2566      C2567   1.417       .  A
C2567      C2568   1.423       .  A
C2568     Br2569   1.931       .  S
C2573      C2574   1.420       .  A
C2573      C2578   1.412       .  A
C2573     Br2580   1.937       .  S
C2575      C2576   1.422       .  A
C2575     Br2582   1.918       .  S
C2576      C2577   1.414   1_545  A
C2576     Br2581   1.930   1_545  S
C2578     Br2579   1.931       .  S
C2583      C2584   1.421       .  A
C2583      C2588   1.403       .  A
C2583     Br2590   1.912       .  S
C2584      C2585   1.421       .  A
C2585      C2586   1.419       .  A
C2585     Br2592   1.930       .  S
C2586      C2587   1.411       .  A
C2586     Br2591   1.926       .  S
C2587      C2588   1.402       .  A
C2588     Br2589   1.938       .  S
C2593      C2594   1.417       .  A
C2593      C2598   1.406       .  A
C2593     Br2600   1.932       .  S
C2594      C2595   1.412       .  A
C2595      C2596   1.418       .  A
C2595     Br2602   1.935       .  S
C2596      C2597   1.428       .  A
C2596     Br2601   1.929       .  S
C2597      C2598   1.421       .  A
C2598     Br2599   1.932       .  S
C2603      C2604   1.415       .  A
C2603      C2608   1.402       .  A
C2603     Br2610   1.926       .  S
C2604      C2605   1.415       .  A
C2605      C2606   1.394       .  A
C2605     Br2612   1.930       .  S
C2606      C2607   1.402       .  A
C2606     Br2611   1.929       .  S
C2607      C2608   1.401       .  A
C2608     Br2609   1.927       .  S
C2613      C2614   1.408       .  A
C2613      C2618   1.410       .  A
C2613     Br2620   1.927       .  S
C2614      C2615   1.411       .  A
C2615      C2616   1.414       .  A
C2615     Br2622   1.927       .  S
C2616      C2617   1.415       .  A
C2616     Br2621   1.930       .  S
C2617      C2618   1.415       .  A
C2618     Br2619   1.931       .  S
C2623      C2624   1.406       .  A
C2623      C2628   1.398       .  A
C2623     Br2630   1.935       .  S
C2624      C2625   1.421       .  A
C2625      C2626   1.425       .  A
C2625     Br2632   1.926       .  S
C2626      C2627   1.414       .  A
C2626     Br2631   1.925       .  S
C2627      C2628   1.417       .  A
C2628     Br2629   1.935       .  S
C2633      C2634   1.422       .  A
C2633      C2638   1.406       .  A
C2633     Br2640   1.934   1_565  S
C2634      C2635   1.414       .  A
C2635      C2636   1.409       .  A
C2635     Br2642   1.933       .  S
C2636      C2637   1.416       .  A
C2636     Br2641   1.930       .  S
C2637      C2638   1.401       .  A
C2638     Br2639   1.918       .  S
C2643      C2644   1.412       .  A
C2643      C2648   1.421       .  A
C2643     Br2650   1.930   1_565  S
C2644      C2645   1.408       .  A
C2645      C2646   1.414       .  A
C2645     Br2652   1.937       .  S
C2646      C2647   1.428       .  A
C2646     Br2651   1.926       .  S
C2647      C2648   1.423       .  A
C2648     Br2649   1.930       .  S
C2653      C2654   1.406       .  A
C2653      C2658   1.408       .  A
C2653     Br2660   1.938       .  S
C2655     Br2662   1.931       .  S
C2656      C2657   1.428       .  A
C2657      C2658   1.430       .  A
C2658     Br2659   1.942       .  S
C2663      C2664   1.409       .  A
C2663      C2668   1.409       .  A
C2663     Br2670   1.936       .  S
C2665     Br2672   1.932       .  S
C2666      C2667   1.416       .  A
C2667      C2668   1.422       .  A
C2668     Br2669   1.935       .  S
C2673      C2674   1.411   1_545  A
C2673     Br2680   1.924   1_545  S
C2675      C2676   1.408       .  A
C2675     Br2682   1.939       .  S
C2676      C2677   1.426       .  A
C2676     Br2681   1.933       .  S
C2677      C2678   1.408       .  A
C2683      C2684   1.422       .  A
C2683      C2688   1.406       .  A
C2683     Br2690   1.937       .  S
C2684      C2685   1.412       .  A
C2685      C2686   1.408       .  A
C2685     Br2692   1.930       .  S
C2686      C2687   1.411       .  A
C2686     Br2691   1.931       .  S
C2687      C2688   1.408       .  A
C2688     Br2689   1.934       .  S
C2693      C2694   1.417       .  A
C2693     Br2700   1.932       .  S
C2694      C2695   1.422       .  A
C2695      C2696   1.413       .  A
C2695     Br2702   1.938       .  S
C2696     Br2701   1.931       .  S
C2697      C2698   1.412   1_565  A
C2698     Br2699   1.929       .  S
C2703      C2704   1.410       .  A
C2703      C2708   1.400       .  A
C2703     Br2710   1.933       .  S
C2704      C2705   1.405       .  A
C2705      C2706   1.403       .  A
C2705     Br2712   1.931       .  S
C2706      C2707   1.410       .  A
C2706     Br2711   1.928       .  S
C2707      C2708   1.412       .  A
C2708     Br2709   1.933       .  S
C2713      C2714   1.416       .  A
C2713      C2718   1.408       .  A
C2713     Br2720   1.931       .  S
C2714      C2715   1.422       .  A
C2716      C2717   1.414       .  A
C2716     Br2721   1.933       .  S
C2718     Br2719   1.923       .  S
C2723      C2724   1.418       .  A
C2723      C2728   1.399       .  A
C2723     Br2730   1.908       .  S
C2724      C2725   1.417       .  A
C2725      C2726   1.420       .  A
C2725     Br2732   1.923       .  S
C2726      C2727   1.412       .  A
C2726     Br2731   1.927       .  S
C2727      C2728   1.398       .  A
C2728     Br2729   1.935       .  S
C2733      C2734   1.415       .  A
C2733     Br2740   1.926       .  S
C2734      C2735   1.415       .  A
C2735     Br2742   1.905       .  S
C2736      C2737   1.396       .  A
C2736     Br2741   1.937       .  S
C2737      C2738   1.414       .  A
C2738     Br2739   1.925       .  S
C2743      C2744   1.430       .  A
C2743      C2748   1.410       .  A
C2743     Br2750   1.934       .  S
C2744      C2745   1.411       .  A
C2745      C2746   1.408       .  A
C2745     Br2752   1.928       .  S
C2746      C2747   1.416       .  A
C2746     Br2751   1.929       .  S
C2747      C2748   1.406       .  A
C2748     Br2749   1.936       .  S
C2753      C2754   1.404       .  A
C2753      C2758   1.393       .  A
C2753     Br2760   1.930       .  S
C2754      C2755   1.424       .  A
C2755      C2756   1.423       .  A
C2755     Br2762   1.928       .  S
C2756      C2757   1.411       .  A
C2756     Br2761   1.923       .  S
C2757      C2758   1.412       .  A
C2758     Br2759   1.916       .  S
C2763      C2764   1.412       .  A
C2763      C2768   1.423       .  A
C2763     Br2770   1.929       .  S
C2764      C2765   1.411       .  A
C2765      C2766   1.403       .  A
C2765     Br2772   1.930       .  S
C2766      C2767   1.411       .  A
C2766     Br2771   1.922       .  S
C2767      C2768   1.426       .  A
C2768     Br2769   1.929       .  S
C2773      C2774   1.420       .  A
C2773      C2778   1.428       .  A
C2773     Br2780   1.925       .  S
C2774      C2775   1.401       .  A
C2775      C2776   1.390       .  A
C2775     Br2782   1.934       .  S
C2776      C2777   1.407       .  A
C2776     Br2781   1.893       .  S
C2777      C2778   1.414       .  A
C2778     Br2779   1.921       .  S
C2783      C2784   1.412       .  A
C2783      C2788   1.409       .  A
C2783     Br2790   1.936       .  S
C2784      C2785   1.423       .  A
C2785      C2786   1.416       .  A
C2785     Br2792   1.927       .  S
C2786      C2787   1.406       .  A
C2786     Br2791   1.925       .  S
C2787      C2788   1.423       .  A
C2788     Br2789   1.928       .  S
C2793      C2794   1.422       .  A
C2793      C2798   1.406       .  A
C2793     Br2800   1.918       .  S
C2794      C2795   1.411       .  A
C2795      C2796   1.417       .  A
C2795     Br2802   1.925       .  S
C2796      C2797   1.415       .  A
C2796     Br2801   1.928       .  S
C2797      C2798   1.404       .  A
C2798     Br2799   1.939       .  S
C2803      C2804   1.418       .  A
C2803      C2808   1.406       .  A
C2804      C2805   1.413       .  A
C2805      C2806   1.394       .  A
C2805     Br2812   1.935       .  S
C2806      C2807   1.406       .  A
C2806     Br2811   1.930       .  S
C2807      C2808   1.403       .  A
C2813      C2814   1.412   1_545  A
C2813      C2818   1.415   1_545  A
C2814      C2815   1.416       .  A
C2815      C2816   1.399       .  A
C2815     Br2822   1.928       .  S
C2816      C2817   1.402       .  A
C2816     Br2821   1.928       .  S
C2817      C2818   1.428       .  A
C2818     Br2819   1.935   1_565  S
C2823      C2824   1.404       .  A
C2823      C2828   1.396       .  A
C2823     Br2830   1.938       .  S
C2824      C2825   1.413   1_565  A
C2825      C2826   1.420   1_545  A
C2825     Br2832   1.925       .  S
C2826      C2827   1.414       .  A
C2826     Br2831   1.926   1_565  S
C2827      C2828   1.410       .  A
C2828     Br2829   1.910       .  S
