geometry optimzed in LAMMPS
_audit_creation_date              2020-12-01 
_audit_creation_method            'lammps2cif' 
_symmetry_space_group_name_H-M    'P1' 
_symmetry_Int_Tables_number       1 
_symmetry_cell_setting            triclinic 
loop_ 
_symmetry_equiv_pos_as_xyz 
  x,y,z 
_cell_length_a                    34.3888189 
_cell_length_b                    34.39025366961315 
_cell_length_c                    25.274005652250974 
_cell_angle_alpha                 90.41718142315894 
_cell_angle_beta                  89.9156700270926 
_cell_angle_gamma                 90.45141759353463 
loop_ 
_atom_site_label 
_atom_site_type_symbol 
_atom_site_fract_x 
_atom_site_fract_y 
_atom_site_fract_z 
_atom_site_charge 
N1          N  0.45495737  0.83112199  0.05253059    -0.36100
N2          N  0.45596437  0.83263844  0.93741293    -0.56600
N3          N  0.54035218  0.83069511  0.93929400    -0.36100
N4          N  0.53939965  0.82551946  0.05416151    -0.56600
C5          C  0.41663291  0.82575155  0.04250504     0.27500
C6          C  0.46078720  0.82305396  0.10426254     0.27500
C7          C  0.53360754  0.82442504  0.88708870     0.27500
C8          C  0.57753238  0.82012442  0.94897200     0.27500
C9          C  0.41763607  0.83881870  0.94534661     0.36100
C10         C  0.46283445  0.83926278  0.88556694     0.36100
C11         C  0.53279241  0.83220324  0.10615349     0.36100
C12         C  0.57798624  0.83082828  0.04641586     0.36100
C13         C  0.39786090  0.81429606  0.08854285    -0.21300
C14         C  0.42565430  0.81287636  0.12756728    -0.21300
C15         C  0.56701916  0.81023430  0.86331665    -0.21300
C16         C  0.59453245  0.80712233  0.90239225    -0.21300
C17         C  0.40004069  0.84912363  0.89818331    -0.22400
C18         C  0.42861043  0.84918984  0.86029295    -0.22400
C19         C  0.56743465  0.84122245  0.13163505    -0.22400
C20         C  0.59595419  0.84076272  0.09372294    -0.22400
C21         C  0.39779482  0.83316188  0.99379988    -0.17700
C22         C  0.49643338  0.82768330  0.13161875    -0.17700
C23         C  0.59743750  0.82474949  0.99774128    -0.17700
C24         C  0.49879542  0.83311746  0.85986425    -0.17700
H25         H  0.36717186  0.80821892  0.09380891     0.15200
H26         H  0.42036270  0.80573076  0.16858985     0.15200
H27         H  0.57137541  0.80302210  0.82201501     0.15200
H28         H  0.62397058  0.79695723  0.89685802     0.15200
H29         H  0.36968217  0.85549996  0.89150757     0.13400
H30         H  0.42443962  0.85524047  0.81873921     0.13400
H31         H  0.57191580  0.84728218  0.17325390     0.13400
H32         H  0.62647833  0.84677706  0.10047731     0.13400
H33         H  0.47491829  0.84401247  0.02748922     0.26700
H34         H  0.52241006  0.84571859  0.96510298     0.26700
N35         N  0.54207914  0.83172726  0.43791058    -0.36100
N36         N  0.54180576  0.83162605  0.55270627    -0.56600
N37         N  0.45766511  0.83507205  0.55230964    -0.36100
N38         N  0.45803216  0.83239701  0.43759524    -0.56600
C39         C  0.57909445  0.82128663  0.44820471     0.27500
C40         C  0.53443765  0.82147943  0.38718011     0.27500
C41         C  0.46451559  0.82608543  0.60349581     0.27500
C42         C  0.42005541  0.82600664  0.54204495     0.27500
C43         C  0.57998387  0.83851620  0.54365776     0.36100
C44         C  0.53536423  0.84001691  0.60431552     0.36100
C45         C  0.46494924  0.83951763  0.38597835     0.36100
C46         C  0.42034782  0.84104897  0.44625085     0.36100
C47         C  0.59515863  0.80408156  0.40349739    -0.21300
C48         C  0.56700543  0.80442847  0.36482357    -0.21300
C49         C  0.43072245  0.81159942  0.62625238    -0.21300
C50         C  0.40279473  0.81114374  0.58733136    -0.21300
C51         C  0.59781361  0.85163313  0.58968457    -0.22400
C52         C  0.56962970  0.85214804  0.62827028    -0.22400
C53         C  0.43153688  0.85279103  0.36165131    -0.22400
C54         C  0.40333086  0.85414899  0.40004905    -0.22400
C55         C  0.59937560  0.82956382  0.49568938    -0.17700
C56         C  0.49988271  0.83023503  0.35980555    -0.17700
C57         C  0.40041609  0.83331233  0.49391162    -0.17700
C58         C  0.49974625  0.83332748  0.63077621    -0.17700
H59         H  0.62432215  0.79293140  0.39893718     0.15200
H60         H  0.57035623  0.79378290  0.32469525     0.15200
H61         H  0.42641706  0.80251309  0.66674029     0.15200
H62         H  0.37301164  0.80140162  0.59215318     0.15200
H63         H  0.62813982  0.85920272  0.59524993     0.13400
H64         H  0.57405798  0.86001235  0.66936084     0.13400
H65         H  0.42759489  0.85995043  0.32039579     0.13400
H66         H  0.37345374  0.86276997  0.39423660     0.13400
H67         H  0.52478398  0.84921528  0.46191029     0.26700
H68         H  0.47624650  0.85069129  0.52770344     0.26700
N69         N  0.83653800  0.44461927  0.05764666    -0.36100
N70         N  0.83755414  0.52909234  0.05935676    -0.56600
N71         N  0.84441109  0.52913360  0.94485194    -0.36100
N72         N  0.84854111  0.44489186  0.94303404    -0.56600
C73         C  0.84081885  0.45154736  0.11014964     0.27500
C74         C  0.84633755  0.40711013  0.04868154     0.27500
C75         C  0.85244642  0.56682486  0.95630087     0.27500
C76         C  0.85641719  0.52249581  0.89461555     0.27500
C77         C  0.82751811  0.52255510  0.11025062     0.36100
C78         C  0.83162332  0.56730544  0.05055904     0.36100
C79         C  0.84095967  0.40666214  0.95044607     0.36100
C80         C  0.84378284  0.45147819  0.89071175     0.36100
C81         C  0.85299553  0.41792637  0.13490205    -0.21300
C82         C  0.85665713  0.38995786  0.09611705    -0.21300
C83         C  0.87010368  0.58419328  0.91297417    -0.21300
C84         C  0.87246053  0.55622612  0.87395223    -0.21300
C85         C  0.81524474  0.55676694  0.13401710    -0.22400
C86         C  0.81764275  0.58511683  0.09608120    -0.22400
C87         C  0.83181617  0.38887906  0.90261926    -0.22400
C88         C  0.83345953  0.41727174  0.86483711    -0.22400
C89         C  0.83255086  0.48691437  0.13667751    -0.17700
C90         C  0.84365118  0.38726166  0.99948009    -0.17700
C91         C  0.85035304  0.48763455  0.86575592    -0.17700
C92         C  0.84143725  0.58668940  0.00315520    -0.17700
H93         H  0.85858201  0.41388593  0.17663138     0.15200
H94         H  0.86562260  0.36024193  0.10229925     0.15200
H95         H  0.87966357  0.61412788  0.90947738     0.15200
H96         H  0.88416665  0.56036875  0.83459829     0.15200
H97         H  0.80602432  0.56093346  0.17462171     0.13400
H98         H  0.81054810  0.61546950  0.10169286     0.13400
H99         H  0.82431680  0.35865942  0.89565719     0.13400
H100        H  0.82753536  0.41312124  0.82313630     0.13400
H101        H  0.82372001  0.46306082  0.03049195     0.26700
H102        H  0.82711725  0.51054426  0.96723262     0.26700
N103        N  0.84092253  0.53011838  0.55814810    -0.36100
N104        N  0.84434678  0.44568895  0.55840174    -0.56600
N105        N  0.83675172  0.44516458  0.44385746    -0.36100
N106        N  0.83736480  0.52947659  0.44349076    -0.56600
C107        C  0.85201887  0.52330967  0.60857295     0.27500
C108        C  0.84962242  0.56771824  0.54757403     0.27500
C109        C  0.84777204  0.40813828  0.45319522     0.27500
C110        C  0.84390799  0.45245133  0.39217944     0.27500
C111        C  0.83739837  0.45268444  0.61024279     0.36100
C112        C  0.83547885  0.40781881  0.54974140     0.36100
C113        C  0.83141298  0.56773586  0.45241260     0.36100
C114        C  0.82841193  0.52275537  0.39219085     0.36100
C115        C  0.86788028  0.55695394  0.63037849    -0.21300
C116        C  0.86640342  0.58498578  0.59185840    -0.21300
C117        C  0.86235085  0.39183817  0.40694355    -0.21300
C118        C  0.85965716  0.41974218  0.36833757    -0.21300
C119        C  0.82398029  0.41921059  0.63463221    -0.22400
C120        C  0.82250655  0.39081274  0.59618820    -0.22400
C121        C  0.81846464  0.58538041  0.40657912    -0.22400
C122        C  0.81669689  0.55686244  0.36833418    -0.22400
C123        C  0.84564235  0.48825659  0.63631017    -0.17700
C124        C  0.84064256  0.58737844  0.50012500    -0.17700
C125        C  0.83457852  0.48714686  0.36553986    -0.17700
C126        C  0.84194953  0.38799164  0.50133261    -0.17700
H127        H  0.87904601  0.56099360  0.67007402     0.15200
H128        H  0.87625218  0.61480570  0.59616922     0.15200
H129        H  0.87331559  0.36268465  0.40136654     0.15200
H130        H  0.86815564  0.41628498  0.32732842     0.15200
H131        H  0.81621865  0.41560222  0.67583233     0.13400
H132        H  0.81331575  0.36097741  0.60196178     0.13400
H133        H  0.81170476  0.61574960  0.40094367     0.13400
H134        H  0.80857362  0.56093325  0.32739616     0.13400
H135        H  0.82426998  0.51150791  0.53460394     0.26700
H136        H  0.82096521  0.46277974  0.46958095     0.26700
N137        N  0.45933207  0.14267431  0.05967472    -0.36100
N138        N  0.54385752  0.14306545  0.05956935    -0.56600
N139        N  0.54354242  0.14123487  0.94474496    -0.36100
N140        N  0.45922177  0.14506931  0.94520968    -0.56600
C141        C  0.46709391  0.15238881  0.11058344     0.27500
C142        C  0.42223558  0.15327006  0.04967800     0.27500
C143        C  0.58131253  0.14960455  0.95460104     0.27500
C144        C  0.53632100  0.15150063  0.89418195     0.27500
C145        C  0.53697457  0.13529094  0.11116195     0.36100
C146        C  0.58133651  0.13354020  0.05008975     0.36100
C147        C  0.42131649  0.13694836  0.95419889     0.36100
C148        C  0.46576504  0.13691089  0.89365243     0.36100
C149        C  0.43460168  0.16942184  0.13321549    -0.21300
C150        C  0.40633633  0.17016031  0.09468071    -0.21300
C151        C  0.59827141  0.16555319  0.90973978    -0.21300
C152        C  0.56985301  0.16655917  0.87146367    -0.21300
C153        C  0.57016657  0.12068602  0.13454000    -0.22400
C154        C  0.59824043  0.11945304  0.09580483    -0.22400
C155        C  0.40383542  0.12315194  0.90826078    -0.22400
C156        C  0.43201699  0.12337936  0.86972898    -0.22400
C157        C  0.50180071  0.14361727  0.13792583    -0.17700
C158        C  0.40181380  0.14549326  0.00206385    -0.17700
C159        C  0.50100921  0.14468644  0.86720176    -0.17700
C160        C  0.60118576  0.14065701  0.00192178    -0.17700
H161        H  0.43148997  0.17994827  0.17344910     0.15200
H162        H  0.37722989  0.18139840  0.09949964     0.15200
H163        H  0.62813069  0.17503487  0.90480559     0.15200
H164        H  0.57355286  0.17676331  0.83133745     0.15200
H165        H  0.57386516  0.11206502  0.17530622     0.13400
H166        H  0.62783789  0.10972045  0.10091045     0.13400
H167        H  0.37378772  0.11446519  0.90281263     0.13400
H168        H  0.42805510  0.11498446  0.82871404     0.13400
H169        H  0.47670209  0.12556122  0.03525458     0.26700
H170        H  0.52508938  0.12514252  0.96898654     0.26700
N171        N  0.53805037  0.14041234  0.56132356    -0.36100
N172        N  0.53905903  0.13885561  0.44659775    -0.56600
N173        N  0.45472840  0.13823723  0.44579615    -0.36100
N174        N  0.45376041  0.14431275  0.56078348    -0.56600
C175        C  0.57583263  0.14887353  0.55139837     0.27500
C176        C  0.53077896  0.15138039  0.61181204     0.27500
C177        C  0.46270778  0.14628954  0.39446900     0.27500
C178        C  0.41740713  0.14859913  0.45493391     0.27500
C179        C  0.57648106  0.12987291  0.45666612     0.36100
C180        C  0.53260243  0.12949922  0.39532689     0.36100
C181        C  0.45957499  0.13934020  0.61317045     0.36100
C182        C  0.41544592  0.13811558  0.55216940     0.36100
C183        C  0.59260910  0.16563908  0.59606777    -0.21300
C184        C  0.56425149  0.16682507  0.63438185    -0.21300
C185        C  0.43006288  0.16187311  0.37078959    -0.21300
C186        C  0.40145684  0.16320421  0.40886749    -0.21300
C187        C  0.59373556  0.11424271  0.41176928    -0.22400
C188        C  0.56593311  0.11418676  0.37277184    -0.22400
C189        C  0.42481984  0.13018941  0.63809283    -0.22400
C190        C  0.39683864  0.12925728  0.59938086    -0.22400
C191        C  0.59601091  0.13926266  0.50430328    -0.17700
C192        C  0.49544145  0.14546914  0.63907996    -0.17700
C193        C  0.39675408  0.14327598  0.50293885    -0.17700
C194        C  0.49795776  0.13777815  0.36783833    -0.17700
H195        H  0.62234721  0.17551494  0.60094162     0.15200
H196        H  0.56788082  0.17771092  0.67438341     0.15200
H197        H  0.42702698  0.17108012  0.33016185     0.15200
H198        H  0.37217806  0.17369552  0.40322049     0.15200
H199        H  0.62342698  0.10452886  0.40731794     0.13400
H200        H  0.56989501  0.10441441  0.33233337     0.13400
H201        H  0.42005263  0.12512335  0.67983144     0.13400
H202        H  0.36624280  0.12319722  0.60550777     0.13400
H203        H  0.51964706  0.12388829  0.53731942     0.26700
H204        H  0.47223071  0.12261178  0.47143170     0.26700
N205        N  0.15490449  0.44972996  0.94661670    -0.36100
N206        N  0.15279060  0.53400180  0.94541829    -0.56600
N207        N  0.15695258  0.53487990  0.06020259    -0.36100
N208        N  0.15594486  0.45026190  0.06106201    -0.56600
C209        C  0.14464001  0.45624347  0.89584551     0.27500
C210        C  0.14622368  0.41216709  0.95724002     0.27500
C211        C  0.14786002  0.57242050  0.05075282     0.27500
C212        C  0.14945620  0.52790013  0.11191984     0.27500
C213        C  0.15939400  0.52692510  0.89345822     0.36100
C214        C  0.16013215  0.57225406  0.95364373     0.36100
C215        C  0.16510386  0.41271169  0.05162921     0.36100
C216        C  0.16569261  0.45770311  0.11188585     0.36100
C217        C  0.12922718  0.42241582  0.87390164    -0.21300
C218        C  0.12973272  0.39473755  0.91289002    -0.21300
C219        C  0.13443656  0.58950297  0.09717499    -0.21300
C220        C  0.13572266  0.56150231  0.13582123    -0.21300
C221        C  0.17063986  0.56088283  0.86836848    -0.22400
C222        C  0.17149764  0.58951060  0.90656065    -0.22400
C223        C  0.18094085  0.39628840  0.09654434    -0.22400
C224        C  0.18086047  0.42466605  0.13495560    -0.22400
C225        C  0.15227575  0.49088594  0.86785901    -0.17700
C226        C  0.15645793  0.39254477  0.00416142    -0.17700
C227        C  0.15794698  0.49295003  0.13865504    -0.17700
C228        C  0.15387370  0.59217138  0.00223554    -0.17700
H229        H  0.11923383  0.41781749  0.83376662     0.15200
H230        H  0.12010421  0.36485234  0.90851844     0.15200
H231        H  0.12515557  0.61923054  0.10291486     0.15200
H232        H  0.12795741  0.56565342  0.17696951     0.15200
H233        H  0.17710759  0.56478024  0.82681890     0.13400
H234        H  0.17910870  0.61969316  0.90010124     0.13400
H235        H  0.19104770  0.36682003  0.10144301     0.13400
H236        H  0.19064486  0.42114857  0.17527807     0.13400
H237        H  0.17175851  0.46819842  0.97011305     0.26700
H238        H  0.17182051  0.51649800  0.03453652     0.26700
N239        N  0.16074086  0.52729130  0.44659849    -0.36100
N240        N  0.16437921  0.44307627  0.44439932    -0.56600
N241        N  0.15846225  0.44314468  0.55961015    -0.36100
N242        N  0.15784820  0.52725963  0.56145007    -0.56600
C243        C  0.16960339  0.52087882  0.39511286     0.27500
C244        C  0.16850938  0.56518632  0.45712044     0.27500
C245        C  0.16939516  0.40608269  0.54960323     0.27500
C246        C  0.16520479  0.45042759  0.61157335     0.27500
C247        C  0.15739406  0.44961653  0.39253837     0.36100
C248        C  0.15743270  0.40482737  0.45256767     0.36100
C249        C  0.15212596  0.56554307  0.55310106     0.36100
C250        C  0.14916001  0.52071569  0.61278817     0.36100
C251        C  0.18285047  0.55517544  0.37257115    -0.21300
C252        C  0.18255198  0.58299707  0.41181086    -0.21300
C253        C  0.18366689  0.38977601  0.59565443    -0.21300
C254        C  0.18054358  0.41755410  0.63487206    -0.21300
C255        C  0.14665230  0.41529136  0.36738866    -0.22400
C256        C  0.14618143  0.38702943  0.40548044    -0.22400
C257        C  0.13980482  0.58348170  0.59938526    -0.22400
C258        C  0.13806238  0.55511206  0.63727771    -0.22400
C259        C  0.16291592  0.48573118  0.36713553    -0.17700
C260        C  0.16034575  0.58488394  0.50517225    -0.17700
C261        C  0.15542018  0.48512439  0.63890277    -0.17700
C262        C  0.16318202  0.38559049  0.50138231    -0.17700
H263        H  0.19133990  0.56001105  0.33191505     0.15200
H264        H  0.19090798  0.61318175  0.40710300     0.15200
H265        H  0.19429955  0.36051270  0.60082569     0.15200
H266        H  0.18831337  0.41367579  0.67594287     0.15200
H267        H  0.13980535  0.41100008  0.32596914     0.13400
H268        H  0.13840222  0.35684383  0.39894055     0.13400
H269        H  0.13342933  0.61394955  0.60551579     0.13400
H270        H  0.13049503  0.55961767  0.67842259     0.13400
H271        H  0.14561468  0.50825267  0.47097612     0.26700
H272        H  0.14263227  0.46060780  0.53420778     0.26700
O273        O  0.83738263  0.77251422  0.95274027    -0.71200
O274        O  0.84190599  0.88318856  0.94994382    -0.71400
O275        O  0.89486427  0.82629833  0.95075554    -0.71300
O276        O  0.78441279  0.82965460  0.95175374    -0.71300
O277        O  0.78490932  0.82426980  0.03735755    -0.71300
O278        O  0.89511137  0.83399274  0.03602255    -0.71300
O279        O  0.83588029  0.88428560  0.03541557    -0.71200
O280        O  0.84461078  0.77438589  0.03811674    -0.71400
V281        V  0.83963906  0.82789269  0.95279223     1.35200
V282        V  0.84005770  0.82925832  0.03516226     1.35200
C283        C  0.84142879  0.75464457  0.99597979     0.78000
C284        C  0.83900054  0.90268237  0.99241529     0.78100
C285        C  0.91393188  0.83071026  0.99318903     0.77900
C286        C  0.76583659  0.82637888  0.99473264     0.77900
O287        O  0.84544538  0.77404578  0.45538631    -0.71200
O288        O  0.83899734  0.88443521  0.45640794    -0.71400
O289        O  0.89741540  0.83245334  0.45752400    -0.71300
O290        O  0.78710678  0.82625145  0.45395454    -0.71300
O291        O  0.78546131  0.82853191  0.53989781    -0.71300
O292        O  0.89610342  0.82953240  0.54323487    -0.71300
O293        O  0.84066011  0.88434332  0.54226094    -0.71200
O294        O  0.84039508  0.77408208  0.54111663    -0.71400
V295        V  0.84224201  0.82927909  0.45745213     1.35200
V296        V  0.84075298  0.82917042  0.53997217     1.35200
C297        C  0.84324005  0.75529779  0.49818123     0.78000
C298        C  0.83880205  0.90323662  0.49961563     0.78100
C299        C  0.91570874  0.83119155  0.50086844     0.77900
C300        C  0.76750336  0.82703418  0.49629526     0.77900
O301        O  0.78802457  0.14484147  0.95586199    -0.71200
O302        O  0.89835882  0.14583113  0.95507158    -0.71400
O303        O  0.84332040  0.09028294  0.95434287    -0.71300
O304        O  0.84382744  0.20068318  0.95647112    -0.71300
O305        O  0.84366680  0.20045073  0.04249712    -0.71300
O306        O  0.84288486  0.08990803  0.04021347    -0.71300
O307        O  0.89869775  0.14527379  0.04090760    -0.71200
O308        O  0.78828961  0.14542007  0.04185727    -0.71400
V309        V  0.84331418  0.14545642  0.95713712     1.35200
V310        V  0.84343693  0.14521311  0.03972212     1.35200
C311        C  0.76937750  0.14495276  0.99903162     0.78000
C312        C  0.91741341  0.14581345  0.99777558     0.78100
C313        C  0.84286174  0.07119869  0.99689606     0.77900
C314        C  0.84404693  0.21930149  0.99976274     0.77900
O315        O  0.83977611  0.20116813  0.54425622    -0.71200
O316        O  0.83718915  0.09070235  0.54543374    -0.71400
O317        O  0.89351754  0.14498104  0.54372729    -0.71300
O318        O  0.78313280  0.14631779  0.54592986    -0.71300
O319        O  0.78227982  0.14692438  0.45995788    -0.71300
O320        O  0.89258337  0.14316306  0.45792954    -0.71300
O321        O  0.83500908  0.08982932  0.45960829    -0.71200
O322        O  0.83919351  0.20024696  0.45827271    -0.71400
V323        V  0.83833555  0.14586389  0.54317311     1.35200
V324        V  0.83736372  0.14506063  0.46061517     1.35200
C325        C  0.83984555  0.21950403  0.50105556     0.78000
C326        C  0.83558715  0.07138897  0.50272845     0.78100
C327        C  0.91197059  0.14340733  0.50044817     0.77900
C328        C  0.76394630  0.14667106  0.50329441     0.77900
O329        O  0.21406487  0.14898447  0.03861578    -0.71200
O330        O  0.10407502  0.14967205  0.03565240    -0.71400
O331        O  0.15827628  0.09456353  0.03324238    -0.71300
O332        O  0.15926559  0.20458394  0.04061902    -0.71300
O333        O  0.16055284  0.20707568  0.95473511    -0.71300
O334        O  0.16014036  0.09670890  0.94750176    -0.71300
O335        O  0.10493213  0.15156348  0.94986955    -0.71200
O336        O  0.21566616  0.15254635  0.95283112    -0.71400
V337        V  0.15900426  0.14953282  0.03529238     1.35200
V338        V  0.16030245  0.15193024  0.95282458     1.35200
C339        C  0.23365687  0.15075273  0.99638386     0.78000
C340        C  0.08561533  0.15039211  0.99252749     0.78100
C341        C  0.15889103  0.07676046  0.98931162     0.77900
C342        C  0.15978832  0.22457041  0.99887214     0.77900
O343        O  0.15682214  0.19828256  0.45702939    -0.71200
O344        O  0.15359739  0.08801480  0.45695521    -0.71400
O345        O  0.09958212  0.14398081  0.45716448    -0.71300
O346        O  0.21016818  0.14191417  0.45717750    -0.71300
O347        O  0.20990434  0.14725182  0.54292508    -0.71300
O348        O  0.09968085  0.14038292  0.54281474    -0.71300
O349        O  0.15752483  0.08839211  0.54262626    -0.71200
O350        O  0.15193734  0.19876302  0.54275815    -0.71400
V351        V  0.15494417  0.14310779  0.45868290     1.35200
V352        V  0.15475424  0.14363471  0.54117005     1.35200
C353        C  0.15491948  0.21731278  0.49992471     0.78000
C354        C  0.15589316  0.06928555  0.49964538     0.78100
C355        C  0.08068065  0.14174931  0.50010539     0.77900
C356        C  0.22880422  0.14509106  0.50009541     0.77900
O357        O  0.15937447  0.78095148  0.03963921    -0.71200
O358        O  0.15443578  0.89078532  0.03336915    -0.71400
O359        O  0.10158938  0.83325387  0.03715667    -0.71300
O360        O  0.21187361  0.83922426  0.03554112    -0.71300
O361        O  0.21125446  0.83008656  0.95034049    -0.71300
O362        O  0.10113841  0.83570663  0.95139886    -0.71300
O363        O  0.15933762  0.88832016  0.94783642    -0.71200
O364        O  0.15269260  0.77786485  0.95423447    -0.71400
V365        V  0.15677715  0.83596111  0.03483435     1.35200
V366        V  0.15617478  0.83306434  0.95246901     1.35200
C367        C  0.15570267  0.76060909  0.99807436     0.78000
C368        C  0.15713343  0.90845580  0.98987051     0.78100
C369        C  0.08244978  0.83440013  0.99447786     0.77900
C370        C  0.23029348  0.83478219  0.99267445     0.77900
O371        O  0.21310979  0.82392351  0.45461420    -0.71200
O372        O  0.10296798  0.82830297  0.45754170    -0.71400
O373        O  0.16043454  0.88157965  0.45619210    -0.71300
O374        O  0.15527899  0.77088087  0.45681528    -0.71300
O375        O  0.16177366  0.77196269  0.54234560    -0.71300
O376        O  0.15674403  0.88197957  0.54187999    -0.71300
O377        O  0.10367633  0.82449057  0.54318720    -0.71200
O378        O  0.21424007  0.83001806  0.54023196    -0.71400
V379        V  0.15799456  0.82619508  0.45786171     1.35200
V380        V  0.15905938  0.82700323  0.54030836     1.35200
C381        C  0.23246359  0.82739938  0.49685678     0.78000
C382        C  0.08438282  0.82655118  0.50063698     0.78100
C383        C  0.15846674  0.90072089  0.49915126     0.77900
C384        C  0.15864988  0.75264995  0.49985131     0.77900
C385        C  0.15361486  0.00569710  0.54694790    -0.20800
C386        C  0.15660824  0.02618253  0.49924163    -0.08800
C387        C  0.16031633  0.00501546  0.45155192     0.30100
C388        C  0.16093040  0.96437080  0.45190668    -0.20800
C389        C  0.15794861  0.94386095  0.49959906    -0.08800
C390        C  0.15427688  0.96505661  0.54732788     0.30100
F391        F  0.15122957  0.94670795  0.59454549    -0.19300
H392        H  0.15061505  0.02115118  0.58420961     0.18400
H393        H  0.16385671  0.94893767  0.41462534     0.18400
F394        F  0.16378989  0.02344149  0.40445198    -0.19300
C395        C  0.15895898  0.01343908  0.03581134    -0.20800
C396        C  0.15828021  0.03372483  0.98786182    -0.08800
C397        C  0.15702810  0.01243033  0.94002289     0.30100
C398        C  0.15694342  0.97166896  0.94069225    -0.20800
C399        C  0.15766357  0.95151165  0.98890155    -0.08800
C400        C  0.15860574  0.97299061  0.03654202     0.30100
F401        F  0.15936654  0.95510681  0.08422955    -0.19300
H402        H  0.15983568  0.02891063  0.07327742     0.18400
H403        H  0.15600737  0.95589531  0.90346283     0.18400
F404        F  0.15554848  0.03079009  0.89271401    -0.19300
C405        C  0.97576062  0.14243020  0.54784021    -0.20800
C406        C  0.95510460  0.14199948  0.49988758    -0.08800
C407        C  0.97615934  0.14043708  0.45206410     0.30100
C408        C  0.01684560  0.14005157  0.45251308    -0.20800
C409        C  0.03750192  0.14105750  0.50045061    -0.08800
C410        C  0.01640765  0.14189254  0.54830923     0.30100
F411        F  0.03487972  0.14265400  0.59574319    -0.19300
H412        H  0.96044407  0.14342091  0.58529816     0.18400
H413        H  0.03220630  0.13912362  0.41509290     0.18400
F414        F  0.95760462  0.13951395  0.40471105    -0.19300
C415        C  0.98021430  0.14531466  0.94803958    -0.20800
C416        C  0.96044316  0.14672058  0.99677922    -0.08800
C417        C  0.98223352  0.14962330  0.04372671     0.30100
C418        C  0.02276741  0.15093851  0.04164471    -0.20800
C419        C  0.04257487  0.14955716  0.99295267    -0.08800
C420        C  0.02081542  0.14684175  0.94595334     0.30100
F421        F  0.03855163  0.14551276  0.89797092    -0.19300
H422        H  0.96422247  0.14310917  0.91124057     0.18400
H423        H  0.03868156  0.15316273  0.07850627     0.18400
F424        F  0.96459012  0.15152955  0.09174746    -0.19300
C425        C  0.97936038  0.82365470  0.45425113    -0.20800
C426        C  0.95889629  0.83072301  0.50147194    -0.08800
C427        C  0.98013788  0.83632744  0.54859078     0.30100
C428        C  0.02083767  0.83447942  0.54820654    -0.20800
C429        C  0.04123466  0.82737926  0.50092229    -0.08800
C430        C  0.01995483  0.82198700  0.45379746     0.30100
F431        F  0.03821476  0.81458029  0.40717937    -0.19300
H432        H  0.96388326  0.81896654  0.41743051     0.18400
H433        H  0.03643705  0.83913190  0.58493596     0.18400
F434        F  0.96174512  0.84421403  0.59493720    -0.19300
C435        C  0.82230063  0.00766347  0.45793406    -0.20800
C436        C  0.83487289  0.02835436  0.50298541    -0.08800
C437        C  0.84750117  0.00748558  0.54740325     0.30100
C438        C  0.84831383  0.96686742  0.54605130    -0.20800
C439        C  0.83660967  0.94619655  0.50057874    -0.08800
C440        C  0.82296370  0.96700635  0.45667448     0.30100
F441        F  0.80973529  0.94816627  0.41279891    -0.19300
H442        H  0.81185078  0.02300165  0.42354507     0.18400
H443        H  0.85885025  0.95157109  0.58042495     0.18400
F444        F  0.86025447  0.02622767  0.59161087    -0.19300
C445        C  0.01907137  0.83014955  0.94652982    -0.20800
C446        C  0.03936572  0.83391302  0.99455194    -0.08800
C447        C  0.01803119  0.83677934  0.04198111     0.30100
C448        C  0.97738435  0.83596845  0.04104920    -0.20800
C449        C  0.95706369  0.83194464  0.99305483    -0.08800
C450        C  0.97844079  0.82897087  0.94562909     0.30100
F451        F  0.96028338  0.82471304  0.89826938    -0.19300
H452        H  0.03467837  0.82771614  0.90941156     0.18400
H453        H  0.96179836  0.83830792  0.07818766     0.18400
F454        F  0.03627873  0.84043637  0.08936567    -0.19300
C455        C  0.82851246  0.96624110  0.03835752    -0.20800
C456        C  0.83962510  0.94582596  0.99246953    -0.08800
C457        C  0.85210119  0.96708568  0.94802493     0.30100
C458        C  0.85311170  0.00779960  0.94977613    -0.20800
C459        C  0.84203498  0.02811946  0.99580387    -0.08800
C460        C  0.82974168  0.00684790  0.04019491     0.30100
F461        F  0.81816780  0.02520317  0.08518552    -0.19300
H462        H  0.81867103  0.95072239  0.07308762     0.18400
H463        H  0.86299762  0.02345725  0.91517159     0.18400
F464        F  0.86410517  0.94869067  0.90325953    -0.19300
C465        C  0.13190568  0.64738194  0.47444939    -0.20800
C466        C  0.15995793  0.62810645  0.50460628    -0.08800
C467        C  0.18778453  0.65002874  0.53283535     0.30100
C468        C  0.18701248  0.69066906  0.53139597    -0.20800
C469        C  0.15914703  0.70988561  0.50082156    -0.08800
C470        C  0.13160871  0.68796583  0.47219753     0.30100
F471        F  0.10366819  0.70580929  0.44354549    -0.19300
H472        H  0.11025349  0.63083304  0.45258715     0.18400
H473        H  0.20857755  0.70719819  0.55345650     0.18400
F474        F  0.21585615  0.63211185  0.56119301    -0.19300
C475        C  0.18510963  0.32033618  0.46715172    -0.20800
C476        C  0.16203495  0.34209623  0.50233224    -0.08800
C477        C  0.13707760  0.32218857  0.53738436     0.30100
C478        C  0.13517341  0.28157167  0.53677100    -0.20800
C479        C  0.15710918  0.26010448  0.50020014    -0.08800
C480        C  0.18208176  0.27978736  0.46520723     0.30100
F481        F  0.20432717  0.25976104  0.43011771    -0.19300
H482        H  0.20505527  0.33489813  0.44049396     0.18400
H483        H  0.11589186  0.26686694  0.56417908     0.18400
F484        F  0.11417187  0.34202290  0.57185444    -0.19300
C485        C  0.12944212  0.69672788  0.96721496    -0.20800
C486        C  0.15461940  0.71777694  0.00057048    -0.08800
C487        C  0.17850029  0.69755157  0.03591811     0.30100
C488        C  0.17835922  0.65685156  0.03595993    -0.20800
C489        C  0.15330733  0.63565735  0.00235776    -0.08800
C490        C  0.12810348  0.65610687  0.96884438     0.30100
F491        F  0.10222273  0.63676458  0.93762056    -0.19300
H492        H  0.11026562  0.71184200  0.94047043     0.18400
H493        H  0.19791098  0.64176055  0.06220973     0.18400
F494        F  0.20283334  0.71707434  0.06919032    -0.19300
C495        C  0.18055614  0.28880676  0.96402353    -0.20800
C496        C  0.15943077  0.26730389  0.00137028    -0.08800
C497        C  0.13765431  0.28695423  0.04017061     0.30100
C498        C  0.13642806  0.32757183  0.04059860    -0.20800
C499        C  0.15785251  0.34921194  0.00346589    -0.08800
C500        C  0.18036443  0.32938293  0.96551623     0.30100
F501        F  0.20216246  0.34930007  0.92985021    -0.19300
H502        H  0.19773614  0.27411895  0.93410534     0.18400
H503        H  0.11865923  0.34223009  0.06988611     0.18400
F504        F  0.11649956  0.26690278  0.07642245    -0.19300
C505        C  0.11807220  0.48837245  0.78036392    -0.20800
C506        C  0.15295954  0.48913027  0.80910685    -0.08800
C507        C  0.18855458  0.48768589  0.78185687     0.30100
C508        C  0.18917678  0.48604621  0.72655670    -0.20800
C509        C  0.15432951  0.48507851  0.69774816    -0.08800
C510        C  0.11867785  0.48605048  0.72504490     0.30100
F511        F  0.08457637  0.48527252  0.69807586    -0.19300
H512        H  0.09043505  0.48938586  0.80092627     0.18400
H513        H  0.21684565  0.48560911  0.70603508     0.18400
F514        F  0.22263928  0.48809465  0.80886321    -0.19300
C515        C  0.12576906  0.48718649  0.28209501    -0.20800
C516        C  0.16170155  0.48715288  0.30839299    -0.08800
C517        C  0.19621044  0.49003376  0.27881568     0.30100
C518        C  0.19469653  0.49327086  0.22376706    -0.20800
C519        C  0.15883296  0.49287429  0.19739496    -0.08800
C520        C  0.12427470  0.48976613  0.22688196     0.30100
F521        F  0.08924212  0.48899965  0.20219769    -0.19300
H522        H  0.09894651  0.48512846  0.30446376     0.18400
H523        H  0.22153191  0.49532247  0.20143061     0.18400
F524        F  0.23128355  0.49004254  0.30334633    -0.19300
C525        C  0.29185147  0.11802513  0.46997640    -0.20800
C526        C  0.27157932  0.14556916  0.50021089    -0.08800
C527        C  0.29246317  0.17278127  0.53094691     0.30100
C528        C  0.33314590  0.17247119  0.53092284    -0.20800
C529        C  0.35347241  0.14430249  0.50159076    -0.08800
C530        C  0.33244868  0.11693038  0.47126123     0.30100
F531        F  0.35122498  0.08870737  0.44372152    -0.19300
H532        H  0.27613250  0.09662340  0.44651613     0.18400
H533        H  0.34889227  0.19395935  0.55419482     0.18400
F534        F  0.27356124  0.20007791  0.56006108    -0.19300
C535        C  0.70168322  0.12275248  0.54143950    -0.20800
C536        C  0.72118043  0.14571527  0.50404308    -0.08800
C537        C  0.69954075  0.16644703  0.46668144     0.30100
C538        C  0.65894723  0.16459346  0.46744976    -0.20800
C539        C  0.63933910  0.14102953  0.50422107    -0.08800
C540        C  0.66114994  0.11982269  0.54104388     0.30100
F541        F  0.64325336  0.09610041  0.57637497    -0.19300
H542        H  0.71795503  0.10619109  0.57008251     0.18400
H543        H  0.64269432  0.18147167  0.43913987     0.18400
F544        F  0.71758573  0.18910621  0.43020976    -0.19300
C545        C  0.29537683  0.12665697  0.03511104    -0.20800
C546        C  0.27649491  0.15026326  0.99822904    -0.08800
C547        C  0.29884855  0.17320655  0.96371555     0.30100
C548        C  0.33947446  0.17213023  0.96587351    -0.20800
C549        C  0.35846785  0.14765500  0.00176276    -0.08800
C550        C  0.33597170  0.12497687  0.03656811     0.30100
F551        F  0.35326285  0.10077080  0.07141943    -0.19300
H552        H  0.27860591  0.10878764  0.06206579     0.18400
H553        H  0.35624330  0.19028320  0.93927518     0.18400
F554        F  0.28142902  0.19745249  0.92902147    -0.19300
C555        C  0.70624204  0.11992784  0.96400394    -0.20800
C556        C  0.72655520  0.14410165  0.99956451    -0.08800
C557        C  0.70565908  0.16659334  0.03631730     0.30100
C558        C  0.66503730  0.16553467  0.03652995    -0.20800
C559        C  0.64457625  0.14096119  0.00154020    -0.08800
C560        C  0.66561594  0.11767816  0.96563809     0.30900
F561        F  0.64688364  0.09255727  0.93254305    -0.19300
H562        H  0.72193549  0.10197565  0.93592192     0.18400
H563        H  0.64942066  0.18393428  0.06413347     0.18400
F564        F  0.72448636  0.19030631  0.07115553    -0.19300
C565        C  0.48344819  0.17686847  0.78225529    -0.20800
C566        C  0.50076004  0.14569269  0.80864465    -0.08800
C567        C  0.51639492  0.11475642  0.77928801     0.30100
C568        C  0.51421842  0.11478689  0.72413715    -0.20800
C569        C  0.49656064  0.14570462  0.69769397    -0.08800
C570        C  0.48149243  0.17702160  0.72698974     0.30100
F571        F  0.46532036  0.20774131  0.70206274    -0.19300
H572        H  0.47143334  0.20095310  0.80459299     0.18400
H573        H  0.52621998  0.09065399  0.70187795     0.18400
F574        F  0.53313291  0.08430804  0.80412455    -0.19300
C575        C  0.47649000  0.11585348  0.22286042    -0.20800
C576        C  0.50089297  0.14261867  0.19700111    -0.08800
C577        C  0.52410143  0.16805505  0.22758322     0.30100
C578        C  0.52326434  0.16613984  0.28294982    -0.20800
C579        C  0.49900097  0.13917272  0.30877298    -0.08800
C580        C  0.47545847  0.11412112  0.27817083     0.30100
F581        F  0.45163029  0.08784408  0.30187232    -0.19300
H582        H  0.45832098  0.09612464  0.19999869     0.18400
H583        H  0.54129225  0.18597789  0.30585274     0.18400
F584        F  0.54711556  0.19505593  0.20387921    -0.19300
C585        C  0.86478429  0.28286909  0.53591588    -0.20800
C586        C  0.84063653  0.26236878  0.50060772    -0.08800
C587        C  0.81725219  0.28314015  0.46527417     0.30100
C588        C  0.81778590  0.32381631  0.46584794    -0.20800
C589        C  0.84223281  0.34450693  0.50079199    -0.08800
C590        C  0.86612870  0.32353421  0.53553264     0.30100
F591        F  0.89076486  0.34235809  0.56911658    -0.19300
H592        H  0.88315297  0.26730503  0.56322064     0.18400
H593        H  0.79883223  0.33928797  0.43920167     0.18400
F594        F  0.79281191  0.26413105  0.43161086    -0.19300
C595        C  0.86830416  0.65055911  0.46746825    -0.20800
C596        C  0.84184068  0.63063624  0.50013018    -0.08800
C597        C  0.81610582  0.65200138  0.53204937     0.30100
C598        C  0.81721528  0.69260804  0.53169807    -0.20800
C599        C  0.84317206  0.71250887  0.49841860    -0.08800
C600        C  0.86866592  0.69122672  0.46601814     0.30100
F601        F  0.89447486  0.70973268  0.43403136    -0.19300
H602        H  0.88844086  0.63448605  0.44280006     0.18400
H603        H  0.79712762  0.70859405  0.55656090     0.18400
F604        F  0.78947550  0.63352364  0.56280143    -0.19300
C605        C  0.87233019  0.32341663  0.97124387    -0.20800
C606        C  0.84375169  0.34390624  0.99953319    -0.08800
C607        C  0.81539343  0.32297269  0.02798538     0.30100
C608        C  0.81635997  0.28236174  0.02922584    -0.20800
C609        C  0.84450878  0.26202154  0.00024917    -0.08800
C610        C  0.87233991  0.28274734  0.97081681     0.30100
F611        F  0.89994265  0.26363466  0.94258517    -0.19300
H612        H  0.89446374  0.33901813  0.94922733     0.18400
H613        H  0.79441575  0.26669986  0.05152254     0.18400
F614        F  0.78648545  0.34187549  0.05392185    -0.19300
C615        C  0.86696435  0.65159056  0.03368150    -0.20800
C616        C  0.84093693  0.62994653  0.00223856    -0.08800
C617        C  0.81544081  0.64954601  0.96832982     0.30100
C618        C  0.81625020  0.69014138  0.96571007    -0.20800
C619        C  0.84194605  0.71181060  0.99757146    -0.08800
C620        C  0.86735895  0.69224043  0.03167954     0.30100
F621        F  0.89336353  0.71237773  0.06178995    -0.19300
H622        H  0.88717094  0.63689384  0.05943148     0.18400
H623        H  0.79627061  0.70472953  0.93951803     0.18400
F624        F  0.78973034  0.62930935  0.93788459    -0.19300
C625        C  0.87716848  0.46722327  0.77730991    -0.20800
C626        C  0.85044862  0.48923959  0.80678553    -0.08800
C627        C  0.82297326  0.51185171  0.77988895     0.30100
C628        C  0.82175952  0.51161013  0.72457890    -0.20800
C629        C  0.84788549  0.48890203  0.69517056    -0.08800
C630        C  0.87586046  0.46689106  0.72197660     0.30100
F631        F  0.90183681  0.44507585  0.69455968    -0.19300
H632        H  0.89872926  0.44990138  0.79733547     0.18400
H633        H  0.80008696  0.52879250  0.70453963     0.18400
F634        F  0.79679652  0.53351477  0.80719364    -0.19300
C635        C  0.86535745  0.50072636  0.22284911    -0.20800
C636        C  0.83240940  0.48722333  0.19546584    -0.08800
C637        C  0.80013306  0.47341120  0.22406851     0.30100
C638        C  0.80092808  0.47330003  0.27949525    -0.20800
C639        C  0.83393541  0.48683988  0.30679674    -0.08800
C640        C  0.86619611  0.50050129  0.27813711     0.30100
F641        F  0.89854983  0.51328524  0.30378508    -0.19300
H642        H  0.89052126  0.51116498  0.20121306     0.18400
H643        H  0.77582977  0.46279329  0.30120804     0.18400
F644        F  0.76796935  0.46022805  0.19833053    -0.19300
C645        C  0.33617369  0.85575002  0.52849191    -0.20800
C646        C  0.35712689  0.83200853  0.49341965    -0.08800
C647        C  0.33669938  0.80689505  0.45882644     0.30100
C648        C  0.29602682  0.80594468  0.45937695    -0.20800
C649        C  0.27525001  0.82898618  0.49555502    -0.08800
C650        C  0.29565329  0.85385983  0.53020905     0.30100
F651        F  0.27635150  0.87707121  0.56486701    -0.19300
H652        H  0.35136465  0.87553598  0.55499933     0.18400
H653        H  0.28076046  0.78653652  0.43243176     0.18400
F654        F  0.35608669  0.78302752  0.42502968    -0.19300
C655        C  0.66396871  0.85156348  0.46004695    -0.20800
C656        C  0.64269736  0.82804825  0.49513959    -0.08800
C657        C  0.66284980  0.80314753  0.52927234     0.30100
C658        C  0.70352423  0.80319171  0.52987536    -0.20800
C659        C  0.72468280  0.82677923  0.49490218    -0.08800
C660        C  0.70461683  0.85055015  0.45931891     0.30100
F661        F  0.72435684  0.87379328  0.42519728    -0.19300
H662        H  0.64898217  0.87081723  0.43330726     0.18400
H663        H  0.71855588  0.78429002  0.55702980     0.18400
F664        F  0.64311682  0.77865856  0.56174176    -0.19300
C665        C  0.33376177  0.80530397  0.96531645    -0.20800
C666        C  0.35463605  0.83401537  0.99326084    -0.08800
C667        C  0.33438693  0.86335274  0.02046762     0.30100
C668        C  0.29374408  0.86340944  0.02040803    -0.20800
C669        C  0.27295398  0.83478675  0.99219664    -0.08800
C670        C  0.29318429  0.80587434  0.96428179     0.30100
F671        F  0.27364266  0.77744434  0.93763059    -0.19300
H672        H  0.34902865  0.78244612  0.94437052     0.18400
H673        H  0.27846511  0.88605429  0.04178686     0.18400
F674        F  0.35399626  0.89185797  0.04689300    -0.19300
C675        C  0.66117669  0.85085878  0.96513357    -0.20800
C676        C  0.64087404  0.82431739  0.99710425    -0.08800
C677        C  0.66210542  0.79787394  0.02782538     0.30100
C678        C  0.70284235  0.79898564  0.02751884    -0.20800
C679        C  0.72295476  0.82538694  0.99512652    -0.08800
C680        C  0.70177184  0.85097976  0.96335487     0.30100
F681        F  0.72034942  0.87695662  0.93180743    -0.19300
H682        H  0.64541211  0.87151884  0.94134113     0.18400
H683        H  0.71873149  0.77872889  0.05180222     0.18400
F684        F  0.64346396  0.77098090  0.05790128    -0.19300
C685        C  0.49876757  0.79809935  0.77279988    -0.20800
C686        C  0.49943651  0.83336263  0.80104831    -0.08800
C687        C  0.49984099  0.86860871  0.77324143     0.30100
C688        C  0.49967324  0.86841228  0.71786352    -0.20800
C689        C  0.49945806  0.83312783  0.68960300    -0.08800
C690        C  0.49910423  0.79789706  0.71746626     0.30100
F691        F  0.49886477  0.76338520  0.69108908    -0.19300
H692        H  0.49816580  0.77075298  0.79379680     0.18400
H693        H  0.49987425  0.89576075  0.69686998     0.18400
F694        F  0.50011344  0.90308888  0.79972129    -0.19300
C695        C  0.50017577  0.86343282  0.21763534    -0.20800
C696        C  0.49593854  0.82802558  0.19027737    -0.08800
C697        C  0.49370174  0.79312983  0.21872010     0.30100
C698        C  0.49525230  0.79385203  0.27401190    -0.20800
C699        C  0.49989938  0.82927593  0.30124391    -0.08800
C700        C  0.50264506  0.86406109  0.27275357     0.30100
F701        F  0.50752736  0.89854548  0.29844095    -0.19300
H702        H  0.50235752  0.89046278  0.19605168     0.18400
H703        H  0.49297094  0.76686900  0.29568186     0.18400
F704        F  0.49027359  0.75852508  0.19291197    -0.19300
loop_ 
_geom_bond_atom_site_label_1 
_geom_bond_atom_site_label_2 
_geom_bond_distance 
_geom_bond_site_symmetry_2 
_ccdc_geom_bond_type 
N1            C6   1.354       .  A
N1            C5   1.353       .  A
N1           H33   1.033       .  S
N2            C9   1.351       .  A
N2           C10   1.352       .  A
N3            C8   1.355       .  A
N3            C7   1.355       .  A
N3           H34   1.035       .  S
N4           C11   1.352       .  A
N4           C12   1.352       .  A
C5           C13   1.388       .  A
C5           C21   1.418   1_554  A
C6           C22   1.416       .  A
C6           C14   1.387       .  A
C7           C15   1.386       .  A
C7           C24   1.417       .  A
C8           C23   1.418       .  A
C8           C16   1.386       .  A
C9           C21   1.415       .  A
C9           C17   1.387       .  A
C10          C24   1.413       .  A
C10          C18   1.386       .  A
C11          C19   1.387       .  A
C11          C22   1.413       .  A
C12          C20   1.386       .  A
C12          C23   1.414   1_554  A
C13          C14   1.376       .  A
C13          H25   1.082       .  S
C14          H26   1.082       .  S
C15          C16   1.374       .  A
C15          H27   1.082       .  S
C16          H28   1.082       .  S
C17          C18   1.371       .  A
C17          H29   1.082       .  S
C18          H30   1.082       .  S
C19          C20   1.370       .  A
C19          H31   1.082       .  S
C20          H32   1.082       .  S
C21         C666   1.485       .  S
C22         C696   1.483       .  S
C23         C676   1.494       .  S
C24         C686   1.487       .  S
N35          C40   1.353       .  A
N35          C39   1.351       .  A
N35          H67   1.040       .  S
N36          C43   1.352       .  A
N36          C44   1.352       .  A
N37          C42   1.353       .  A
N37          C41   1.354       .  A
N37          H68   1.040       .  S
N38          C45   1.350       .  A
N38          C46   1.349       .  A
C39          C47   1.388       .  A
C39          C55   1.415       .  A
C40          C56   1.412       .  A
C40          C48   1.386       .  A
C41          C49   1.387       .  A
C41          C58   1.414       .  A
C42          C57   1.417       .  A
C42          C50   1.388       .  A
C43          C55   1.416       .  A
C43          C51   1.387       .  A
C44          C58   1.413       .  A
C44          C52   1.386       .  A
C45          C53   1.386       .  A
C45          C56   1.408       .  A
C46          C54   1.387       .  A
C46          C57   1.411       .  A
C47          C48   1.377       .  A
C47          H59   1.082       .  S
C48          H60   1.082       .  S
C49          C50   1.376       .  A
C49          H61   1.082       .  S
C50          H62   1.082       .  S
C51          C52   1.374       .  A
C51          H63   1.082       .  S
C52          H64   1.082       .  S
C53          C54   1.372       .  A
C53          H65   1.082       .  S
C54          H66   1.082       .  S
C55         C656   1.491       .  S
C56         C699   1.480       .  S
C57         C646   1.489       .  S
C58         C689   1.487       .  S
N69          C74   1.353       .  A
N69          C73   1.355       .  A
N69         H101   1.039       .  S
N70          C77   1.351       .  A
N70          C78   1.352       .  A
N71          C76   1.353       .  A
N71          C75   1.353       .  A
N71         H102   1.040       .  S
N72          C79   1.353       .  A
N72          C80   1.354       .  A
C73          C81   1.387       .  A
C73          C89   1.415       .  A
C74          C90   1.417   1_554  A
C74          C82   1.388       .  A
C75          C83   1.388       .  A
C75          C92   1.415   1_556  A
C76          C91   1.413       .  A
C76          C84   1.386       .  A
C77          C89   1.412       .  A
C77          C85   1.386       .  A
C78          C92   1.414       .  A
C78          C86   1.387       .  A
C79          C87   1.386       .  A
C79          C90   1.415       .  A
C80          C88   1.386       .  A
C80          C91   1.415       .  A
C81          C82   1.375       .  A
C81          H93   1.082       .  S
C82          H94   1.082       .  S
C83          C84   1.375       .  A
C83          H95   1.082       .  S
C84          H96   1.082       .  S
C85          C86   1.374       .  A
C85          H97   1.083       .  S
C86          H98   1.082       .  S
C87          C88   1.371       .  A
C87          H99   1.082       .  S
C88         H100   1.082       .  S
C89         C636   1.486       .  S
C90         C606   1.491       .  S
C91         C626   1.492       .  S
C92         C616   1.488       .  S
N103        C108   1.353       .  A
N103        C107   1.353       .  A
N103        H135   1.040       .  S
N104        C111   1.352       .  A
N104        C112   1.352       .  A
N105        C110   1.354       .  A
N105        C109   1.354       .  A
N105        H136   1.041       .  S
N106        C113   1.350       .  A
N106        C114   1.351       .  A
C107        C115   1.386       .  A
C107        C123   1.414       .  A
C108        C124   1.417       .  A
C108        C116   1.388       .  A
C109        C117   1.388       .  A
C109        C126   1.418       .  A
C110        C125   1.414       .  A
C110        C118   1.386       .  A
C111        C123   1.412       .  A
C111        C119   1.385       .  A
C112        C126   1.414       .  A
C112        C120   1.387       .  A
C113        C121   1.387       .  A
C113        C124   1.413       .  A
C114        C122   1.386       .  A
C114        C125   1.411       .  A
C115        C116   1.376       .  A
C115        H127   1.082       .  S
C116        H128   1.082       .  S
C117        C118   1.377       .  A
C117        H129   1.082       .  S
C118        H130   1.082       .  S
C119        C120   1.373       .  A
C119        H131   1.082       .  S
C120        H132   1.082       .  S
C121        C122   1.373       .  A
C121        H133   1.082       .  S
C122        H134   1.082       .  S
C123        C629   1.490       .  S
C124        C596   1.488       .  S
C125        C639   1.485       .  S
C126        C589   1.496       .  S
N137        C142   1.354       .  A
N137        C141   1.353       .  A
N137        H169   1.041       .  S
N138        C145   1.353       .  A
N138        C146   1.353       .  A
N139        C144   1.352       .  A
N139        C143   1.351       .  A
N139        H170   1.040       .  S
N140        C147   1.350       .  A
N140        C148   1.350       .  A
C141        C149   1.386       .  A
C141        C157   1.416       .  A
C142        C158   1.417       .  A
C142        C150   1.387       .  A
C143        C151   1.389       .  A
C143        C160   1.415   1_556  A
C144        C159   1.411       .  A
C144        C152   1.386       .  A
C145        C157   1.415       .  A
C145        C153   1.385       .  A
C146        C160   1.417       .  A
C146        C154   1.386       .  A
C147        C155   1.387       .  A
C147        C158   1.413   1_556  A
C148        C156   1.385       .  A
C148        C159   1.408       .  A
C149        C150   1.378       .  A
C149        H161   1.082       .  S
C150        H162   1.082       .  S
C151        C152   1.377       .  A
C151        H163   1.082       .  S
C152        H164   1.083       .  S
C153        C154   1.375       .  A
C153        H165   1.082       .  S
C154        H166   1.082       .  S
C155        C156   1.373       .  A
C155        H167   1.082       .  S
C156        H168   1.083       .  S
C157        C576   1.494       .  S
C158        C549   1.493       .  S
C159        C566   1.481       .  S
C160        C559   1.492       .  S
N171        C176   1.352       .  A
N171        C175   1.353       .  A
N171        H203   1.040       .  S
N172        C179   1.351       .  A
N172        C180   1.351       .  A
N173        C178   1.354       .  A
N173        C177   1.356       .  A
N173        H204   1.040       .  S
N174        C181   1.352       .  A
N174        C182   1.351       .  A
C175        C183   1.388       .  A
C175        C191   1.415       .  A
C176        C192   1.410       .  A
C176        C184   1.386       .  A
C177        C185   1.386       .  A
C177        C194   1.417       .  A
C178        C193   1.417       .  A
C178        C186   1.387       .  A
C179        C191   1.414       .  A
C179        C187   1.387       .  A
C180        C194   1.412       .  A
C180        C188   1.385       .  A
C181        C189   1.385       .  A
C181        C192   1.411       .  A
C182        C190   1.388       .  A
C182        C193   1.414       .  A
C183        C184   1.374       .  A
C183        H195   1.082       .  S
C184        H196   1.083       .  S
C185        C186   1.376       .  A
C185        H197   1.082       .  S
C186        H198   1.082       .  S
C187        C188   1.374       .  A
C187        H199   1.082       .  S
C188        H200   1.082       .  S
C189        C190   1.373       .  A
C189        H201   1.082       .  S
C190        H202   1.082       .  S
C191        C539   1.491       .  S
C192        C569   1.482       .  S
C193        C529   1.490       .  S
C194        C579   1.494       .  S
N205        C210   1.352       .  A
N205        C209   1.352       .  A
N205        H237   1.040       .  S
N206        C213   1.353       .  A
N206        C214   1.352       .  A
N207        C212   1.355       .  A
N207        C211   1.354       .  A
N207        H238   1.039       .  S
N208        C215   1.351       .  A
N208        C216   1.350       .  A
C209        C217   1.387       .  A
C209        C225   1.413       .  A
C210        C226   1.415   1_556  A
C210        C218   1.387       .  A
C211        C219   1.388       .  A
C211        C228   1.420       .  A
C212        C227   1.416       .  A
C212        C220   1.386       .  A
C213        C225   1.414       .  A
C213        C221   1.385       .  A
C214        C228   1.419   1_556  A
C214        C222   1.388       .  A
C215        C223   1.386       .  A
C215        C226   1.412       .  A
C216        C224   1.387       .  A
C216        C227   1.411       .  A
C217        C218   1.375       .  A
C217        H229   1.082       .  S
C218        H230   1.082       .  S
C219        C220   1.378       .  A
C219        H231   1.082       .  S
C220        H232   1.082       .  S
C221        C222   1.374       .  A
C221        H233   1.082       .  S
C222        H234   1.082       .  S
C223        C224   1.372       .  A
C223        H235   1.082       .  S
C224        H236   1.082       .  S
C225        C506   1.486       .  S
C226        C499   1.491       .  S
C227        C519   1.485       .  S
C228        C489   1.496       .  S
N239        C244   1.353       .  A
N239        C243   1.353       .  A
N239        H271   1.038       .  S
N240        C247   1.354       .  A
N240        C248   1.352       .  A
N241        C246   1.355       .  A
N241        C245   1.354       .  A
N241        H272   1.040       .  S
N242        C249   1.351       .  A
N242        C250   1.351       .  A
C243        C251   1.387       .  A
C243        C259   1.413       .  A
C244        C260   1.415       .  A
C244        C252   1.387       .  A
C245        C253   1.388       .  A
C245        C262   1.419       .  A
C246        C261   1.417       .  A
C246        C254   1.387       .  A
C247        C259   1.414       .  A
C247        C255   1.385       .  A
C248        C262   1.419       .  A
C248        C256   1.388       .  A
C249        C257   1.386       .  A
C249        C260   1.413       .  A
C250        C258   1.387       .  A
C250        C261   1.413       .  A
C251        C252   1.373       .  A
C251        H263   1.081       .  S
C252        H264   1.082       .  S
C253        C254   1.376       .  A
C253        H265   1.082       .  S
C254        H266   1.082       .  S
C255        C256   1.373       .  A
C255        H267   1.082       .  S
C256        H268   1.082       .  S
C257        C258   1.373       .  A
C257        H269   1.082       .  S
C258        H270   1.082       .  S
C259        C516   1.486       .  S
C260        C466   1.487       .  S
C261        C509   1.488       .  S
C262        C476   1.496       .  S
O273        V281   1.905       .  S
O273        C283   1.266       .  A
O274        V281   1.905       .  S
O274        C284   1.266       .  A
O275        V281   1.901       .  S
O275        C285   1.265       .  A
O276        V281   1.901       .  S
O276        C286   1.265       .  A
O277        V282   1.904       .  S
O277        C286   1.265   1_554  A
O278        V282   1.899       .  S
O278        C285   1.265   1_554  A
O279        V282   1.899       .  S
O279        C284   1.266   1_554  A
O280        V282   1.897       .  S
O280        C283   1.263   1_554  A
V281        V282   2.082   1_556  T
C283        C619   1.474       .  S
C284        C456   1.484       .  S
C285        C449   1.484       .  S
C286        C679   1.475       .  S
O287        V295   1.904       .  S
O287        C297   1.265       .  A
O288        V295   1.901       .  S
O288        C298   1.265       .  A
O289        V295   1.900       .  S
O289        C299   1.265       .  A
O290        V295   1.900       .  S
O290        C300   1.264       .  A
O291        V296   1.901       .  S
O291        C300   1.265       .  A
O292        V296   1.905       .  S
O292        C299   1.266       .  A
O293        V296   1.898       .  S
O293        C298   1.265       .  A
O294        V296   1.895       .  S
O294        C297   1.263       .  A
V295        V296   2.086       .  T
C297        C599   1.472       .  S
C298        C439   1.480       .  S
C299        C426   1.485       .  S
C300        C659   1.473       .  S
O301        V309   1.902       .  S
O301        C311   1.265       .  A
O302        V309   1.894       .  S
O302        C312   1.263       .  A
O303        V309   1.898       .  S
O303        C313   1.264       .  A
O304        V309   1.899       .  S
O304        C314   1.264       .  A
O305        V310   1.900       .  S
O305        C314   1.264   1_554  A
O306        V310   1.902       .  S
O306        C313   1.266   1_554  A
O307        V310   1.901       .  S
O307        C312   1.265   1_554  A
O308        V310   1.897       .  S
O308        C311   1.263   1_554  A
V309        V310   2.087   1_556  T
C311        C556   1.473       .  S
C312        C416   1.480       .  S
C313        C459   1.482       .  S
C314        C609   1.469   1_556  S
O315        V323   1.902       .  S
O315        C325   1.265       .  A
O316        V323   1.898       .  S
O316        C326   1.264       .  A
O317        V323   1.898       .  S
O317        C327   1.265       .  A
O318        V323   1.900       .  S
O318        C328   1.265       .  A
O319        V324   1.896       .  S
O319        C328   1.263       .  A
O320        V324   1.902       .  S
O320        C327   1.265       .  A
O321        V324   1.900       .  S
O321        C326   1.265       .  A
O322        V324   1.900       .  S
O322        C325   1.264       .  A
V323        V324   2.087       .  T
C325        C586   1.474       .  S
C326        C436   1.480       .  S
C327        C406   1.485       .  S
C328        C536   1.471       .  S
O329        V337   1.896       .  S
O329        C339   1.263   1_554  A
O330        V337   1.889       .  S
O330        C340   1.263   1_554  A
O331        V337   1.891       .  S
O331        C341   1.264   1_554  A
O332        V337   1.897       .  S
O332        C342   1.263   1_554  A
O333        V338   1.897       .  S
O333        C342   1.264       .  A
O334        V338   1.903       .  S
O334        C341   1.265       .  A
O335        V338   1.906       .  S
O335        C340   1.266       .  A
O336        V338   1.904       .  S
O336        C339   1.266       .  A
V337        V338   2.087   1_554  T
C339        C546   1.474       .  S
C340        C419   1.480       .  S
C341        C396   1.480       .  S
C342        C496   1.471   1_556  S
O343        V351   1.899       .  S
O343        C353   1.264       .  A
O344        V351   1.895       .  S
O344        C354   1.263       .  A
O345        V351   1.905       .  S
O345        C355   1.267       .  A
O346        V351   1.900       .  S
O346        C356   1.264       .  A
O347        V352   1.900       .  S
O347        C356   1.264       .  A
O348        V352   1.897       .  S
O348        C355   1.264       .  A
O349        V352   1.904       .  S
O349        C354   1.267       .  A
O350        V352   1.899       .  S
O350        C353   1.264       .  A
V351        V352   2.085       .  T
C353        C479   1.473       .  S
C354        C386   1.483       .  S
C355        C409   1.485       .  S
C356        C526   1.471       .  S
O357        V365   1.899       .  S
O357        C367   1.264   1_554  A
O358        V365   1.888       .  S
O358        C368   1.263   1_554  A
O359        V365   1.900       .  S
O359        C369   1.265   1_554  A
O360        V365   1.897       .  S
O360        C370   1.263   1_554  A
O361        V366   1.898       .  S
O361        C370   1.264       .  A
O362        V366   1.896       .  S
O362        C369   1.264       .  A
O363        V366   1.907       .  S
O363        C368   1.266       .  A
O364        V366   1.902       .  S
O364        C367   1.265       .  A
V365        V366   2.083   1_554  T
C367        C486   1.475   1_556  S
C368        C399   1.481       .  S
C369        C446   1.482       .  S
C370        C669   1.467       .  S
O371        V379   1.899       .  S
O371        C381   1.263       .  A
O372        V379   1.894       .  S
O372        C382   1.264       .  A
O373        V379   1.907       .  S
O373        C383   1.268       .  A
O374        V379   1.904       .  S
O374        C384   1.265       .  A
O375        V380   1.897       .  S
O375        C384   1.263       .  A
O376        V380   1.893       .  S
O376        C383   1.263       .  A
O377        V380   1.907       .  S
O377        C382   1.267       .  A
O378        V380   1.900       .  S
O378        C381   1.265       .  A
V379        V380   2.084       .  T
C381        C649   1.472       .  S
C382        C429   1.484       .  S
C383        C389   1.484       .  S
C384        C469   1.471       .  S
C385        C386   1.404       .  A
C385        C390   1.398   1_545  A
C385        H392   1.083       .  S
C386        C387   1.410       .  A
C387        C388   1.398   1_545  A
C387        F394   1.357       .  S
C388        C389   1.404       .  A
C388        H393   1.083       .  S
C389        C390   1.411       .  A
C390        F391   1.358       .  S
C395        C396   1.403   1_554  A
C395        C400   1.391   1_545  A
C395        H402   1.083       .  S
C396        C397   1.410       .  A
C397        C398   1.402   1_545  A
C397        F404   1.357       .  S
C398        C399   1.407       .  A
C398        H403   1.083       .  S
C399        C400   1.408   1_556  A
C400        F401   1.357       .  S
C405        C406   1.406       .  A
C405        C410   1.398   1_655  A
C405        H412   1.083       .  S
C406        C407   1.409       .  A
C407        C408   1.399   1_655  A
C407        F414   1.357       .  S
C408        C409   1.405       .  A
C408        H413   1.083       .  S
C409        C410   1.410       .  A
C410        F411   1.358       .  S
C415        C416   1.407       .  A
C415        C420   1.398   1_655  A
C415        H422   1.083       .  S
C416        C417   1.407   1_556  A
C417        C418   1.395   1_655  A
C417        F424   1.357       .  S
C418        C419   1.406   1_554  A
C418        H423   1.083       .  S
C419        C420   1.407       .  A
C420        F421   1.357       .  S
C425        C426   1.405       .  A
C425        C430   1.398   1_655  A
C425        H432   1.083       .  S
C426        C427   1.409       .  A
C427        C428   1.402   1_655  A
C427        F434   1.357       .  S
C428        C429   1.406       .  A
C428        H433   1.083       .  S
C429        C430   1.409       .  A
C430        F431   1.358       .  S
C435        C436   1.405       .  A
C435        C440   1.399   1_545  A
C435        H442   1.083       .  S
C436        C437   1.408       .  A
C437        C438   1.398   1_545  A
C437        F444   1.357       .  S
C438        C439   1.405       .  A
C438        H443   1.083       .  S
C439        C440   1.408       .  A
C440        F441   1.357       .  S
C445        C446   1.406       .  A
C445        C450   1.398   1_455  A
C445        H452   1.083       .  S
C446        C447   1.408   1_556  A
C447        C448   1.398   1_455  A
C447        F454   1.357       .  S
C448        C449   1.406   1_554  A
C448        H453   1.083       .  S
C449        C450   1.409       .  A
C450        F451   1.357       .  S
C455        C456   1.405   1_554  A
C455        C460   1.397   1_565  A
C455        H462   1.083       .  S
C456        C457   1.409       .  A
C457        C458   1.401   1_565  A
C457        F464   1.358       .  S
C458        C459   1.406       .  A
C458        H463   1.083       .  S
C459        C460   1.407   1_556  A
C460        F461   1.357       .  S
C465        C466   1.404       .  A
C465        C470   1.397       .  A
C465        H472   1.083       .  S
C466        C467   1.406       .  A
C467        C468   1.399       .  A
C467        F474   1.358       .  S
C468        C469   1.404       .  A
C468        H473   1.083       .  S
C469        C470   1.404       .  A
C470        F471   1.357       .  S
C475        C476   1.406       .  A
C475        C480   1.398       .  A
C475        H482   1.083       .  S
C476        C477   1.410       .  A
C477        C478   1.398       .  A
C477        F484   1.357       .  S
C478        C479   1.402       .  A
C478        H483   1.083       .  S
C479        C480   1.405       .  A
C480        F481   1.358       .  S
C485        C486   1.403   1_556  A
C485        C490   1.398       .  A
C485        H492   1.083       .  S
C486        C487   1.406       .  A
C487        C488   1.400       .  A
C487        F494   1.358       .  S
C488        C489   1.406       .  A
C488        H493   1.083       .  S
C489        C490   1.408   1_554  A
C490        F491   1.357       .  S
C495        C496   1.402   1_556  A
C495        C500   1.396       .  A
C495        H502   1.083       .  S
C496        C497   1.405       .  A
C497        C498   1.398       .  A
C497        F504   1.358       .  S
C498        C499   1.406       .  A
C498        H503   1.083       .  S
C499        C500   1.407   1_554  A
C500        F501   1.357       .  S
C505        C506   1.403       .  A
C505        C510   1.400       .  A
C505        H512   1.083       .  S
C506        C507   1.405       .  A
C507        C508   1.399       .  A
C507        F514   1.357       .  S
C508        C509   1.403       .  A
C508        H513   1.083       .  S
C509        C510   1.406       .  A
C510        F511   1.357       .  S
C515        C516   1.404       .  A
C515        C520   1.400       .  A
C515        H522   1.083       .  S
C516        C517   1.405       .  A
C517        C518   1.398       .  A
C517        F524   1.357       .  S
C518        C519   1.403       .  A
C518        H523   1.083       .  S
C519        C520   1.406       .  A
C520        F521   1.357       .  S
C525        C526   1.402       .  A
C525        C530   1.397       .  A
C525        H532   1.083       .  S
C526        C527   1.406       .  A
C527        C528   1.399       .  A
C527        F534   1.358       .  S
C528        C529   1.405       .  A
C528        H533   1.083       .  S
C529        C530   1.406       .  A
C530        F531   1.357       .  S
C535        C536   1.403       .  A
C535        C540   1.397       .  A
C535        H542   1.083       .  S
C536        C537   1.405       .  A
C537        C538   1.397       .  A
C537        F544   1.358       .  S
C538        C539   1.406       .  A
C538        H543   1.083       .  S
C539        C540   1.408       .  A
C540        F541   1.357       .  S
C545        C546   1.404   1_554  A
C545        C550   1.398       .  A
C545        H552   1.083       .  S
C546        C547   1.405       .  A
C547        C548   1.399       .  A
C547        F554   1.358       .  S
C548        C549   1.407   1_556  A
C548        H553   1.083       .  S
C549        C550   1.407       .  A
C550        F551   1.357       .  S
C555        C556   1.403       .  A
C555        C560   1.399       .  A
C555        H562   1.083       .  S
C556        C557   1.405   1_556  A
C557        C558   1.397       .  A
C557        F564   1.357       .  S
C558        C559   1.405       .  A
C558        H563   1.083       .  S
C559        C560   1.409   1_554  A
C560        F561   1.358       .  S
C565        C566   1.404       .  A
C565        C570   1.399       .  A
C565        H572   1.083       .  S
C566        C567   1.403       .  A
C567        C568   1.396       .  A
C567        F574   1.357       .  S
C568        C569   1.403       .  A
C568        H573   1.083       .  S
C569        C570   1.405       .  A
C570        F571   1.357       .  S
C575        C576   1.405       .  A
C575        C580   1.400       .  A
C575        H582   1.083       .  S
C576        C577   1.407       .  A
C577        C578   1.402       .  A
C577        F584   1.357       .  S
C578        C579   1.406       .  A
C578        H583   1.083       .  S
C579        C580   1.406       .  A
C580        F581   1.357       .  S
C585        C586   1.402       .  A
C585        C590   1.399       .  A
C585        H592   1.083       .  S
C586        C587   1.405       .  A
C587        C588   1.399       .  A
C587        F594   1.358       .  S
C588        C589   1.406       .  A
C588        H593   1.083       .  S
C589        C590   1.410       .  A
C590        F591   1.357       .  S
C595        C596   1.405       .  A
C595        C600   1.399       .  A
C595        H602   1.083       .  S
C596        C597   1.405       .  A
C597        C598   1.397       .  A
C597        F604   1.357       .  S
C598        C599   1.403       .  A
C598        H603   1.084       .  S
C599        C600   1.405       .  A
C600        F601   1.358       .  S
C605        C606   1.405       .  A
C605        C610   1.399       .  A
C605        H612   1.083       .  S
C606        C607   1.407   1_556  A
C607        C608   1.398       .  A
C607        F614   1.357       .  S
C608        C609   1.401       .  A
C608        H613   1.083       .  S
C609        C610   1.404   1_554  A
C610        F611   1.358       .  S
C615        C616   1.403       .  A
C615        C620   1.399       .  A
C615        H622   1.083       .  S
C616        C617   1.406   1_554  A
C617        C618   1.398       .  A
C617        F624   1.357       .  S
C618        C619   1.403       .  A
C618        H623   1.083       .  S
C619        C620   1.407   1_556  A
C620        F621   1.358       .  S
C625        C626   1.405       .  A
C625        C630   1.399       .  A
C625        H632   1.083       .  S
C626        C627   1.407       .  A
C627        C628   1.399       .  A
C627        F634   1.358       .  S
C628        C629   1.404       .  A
C628        H633   1.083       .  S
C629        C630   1.407       .  A
C630        F631   1.357       .  S
C635        C636   1.403       .  A
C635        C640   1.398       .  A
C635        H642   1.083       .  S
C636        C637   1.405       .  A
C637        C638   1.401       .  A
C637        F644   1.357       .  S
C638        C639   1.404       .  A
C638        H643   1.083       .  S
C639        C640   1.404       .  A
C640        F641   1.357       .  S
C645        C646   1.403       .  A
C645        C650   1.395       .  A
C645        H652   1.083       .  S
C646        C647   1.409       .  A
C647        C648   1.399       .  A
C647        F654   1.358       .  S
C648        C649   1.404       .  A
C648        H653   1.083       .  S
C649        C650   1.404       .  A
C650        F651   1.357       .  S
C655        C656   1.405       .  A
C655        C660   1.399       .  A
C655        H662   1.083       .  S
C656        C657   1.407       .  A
C657        C658   1.399       .  A
C657        F664   1.357       .  S
C658        C659   1.403       .  A
C658        H663   1.083       .  S
C659        C660   1.405       .  A
C660        F661   1.358       .  S
C665        C666   1.403       .  A
C665        C670   1.396       .  A
C665        H672   1.083       .  S
C666        C667   1.405   1_556  A
C667        C668   1.398       .  A
C667        F674   1.358       .  S
C668        C669   1.403   1_554  A
C668        H673   1.084       .  S
C669        C670   1.403       .  A
C670        F671   1.357       .  S
C675        C676   1.404       .  A
C675        C680   1.397       .  A
C675        H682   1.083       .  S
C676        C677   1.409   1_556  A
C677        C678   1.401       .  A
C677        F684   1.358       .  S
C678        C679   1.404   1_554  A
C678        H683   1.083       .  S
C679        C680   1.404       .  A
C680        F681   1.357       .  S
C685        C686   1.403       .  A
C685        C690   1.399       .  A
C685        H692   1.083       .  S
C686        C687   1.406       .  A
C687        C688   1.400       .  A
C687        F694   1.357       .  S
C688        C689   1.404       .  A
C688        H693   1.083       .  S
C689        C690   1.406       .  A
C690        F691   1.357       .  S
C695        C696   1.403       .  A
C695        C700   1.396       .  A
C695        H702   1.083       .  S
C696        C697   1.405       .  A
C697        C698   1.399       .  A
C697        F704   1.357       .  S
C698        C699   1.403       .  A
C698        H703   1.083       .  S
C699        C700   1.403       .  A
C700        F701   1.357       .  S
