geometry optimzed in LAMMPS
_audit_creation_date              2020-11-30 
_audit_creation_method            'lammps2cif' 
_symmetry_space_group_name_H-M    'P1' 
_symmetry_Int_Tables_number       1 
_symmetry_cell_setting            triclinic 
loop_ 
_symmetry_equiv_pos_as_xyz 
  x,y,z 
_cell_length_a                    46.22066185 
_cell_length_b                    45.48710823528715 
_cell_length_c                    43.26347649750311 
_cell_angle_alpha                 90.25494266375378 
_cell_angle_beta                  90.70342689636517 
_cell_angle_gamma                 89.44011525049616 
loop_ 
_atom_site_label 
_atom_site_type_symbol 
_atom_site_fract_x 
_atom_site_fract_y 
_atom_site_fract_z 
_atom_site_charge 
O1          O  0.01988707  0.97057447  0.22510699    -0.73900
O2          O  0.96338793  0.03041647  0.20875576    -0.74000
O3          O  0.02153065  0.02930128  0.21708698    -0.74000
O4          O  0.96175288  0.97171208  0.21666457    -0.74100
O5          O  0.95589390  0.97847195  0.26727307    -0.74000
O6          O  0.01634924  0.03558069  0.26792757    -0.74000
O7          O  0.95817197  0.03747312  0.25951957    -0.74000
O8          O  0.01417162  0.97700183  0.27579104    -0.74000
Ni9        Ni  0.99183742  0.00026335  0.21510391     1.25400
Ni10       Ni  0.98588404  0.00736391  0.26944764     1.25400
C11         C  0.02664640  0.96419413  0.25309740     0.88200
C12         C  0.95152285  0.04372412  0.23148935     0.88200
C13         C  0.02902017  0.04160599  0.24259568     0.88200
C14         C  0.94885631  0.96565881  0.24184869     0.88400
O15         O  0.19055069  0.30207678  0.26041425    -0.80400
O16         O  0.24141255  0.20457539  0.17681385    -0.65100
O17         O  0.22313854  0.25180783  0.24628629    -1.11700
C18         C  0.29790129  0.31262081  0.21238507     1.06500
O19         O  0.28903242  0.21009495  0.17932841    -0.78300
O20         O  0.30354405  0.23567726  0.23394106    -0.65900
Ni21       Ni  0.18352230  0.26092786  0.25504413     1.34900
C22         C  0.29699648  0.24800636  0.25931457     0.85200
O23         O  0.20677743  0.19646175  0.22414967    -0.78800
O24         O  0.17257529  0.22059483  0.25067791    -0.89100
C25         C  0.26665740  0.19757977  0.16850675     0.84800
O26         O  0.17065205  0.26873739  0.21411020    -0.67300
O27         O  0.30921566  0.28833058  0.20399143    -0.86600
C28         C  0.17891563  0.25867187  0.18834362     0.85600
C29         C  0.18294008  0.19719612  0.23865621     1.07200
H30         H  0.24885025  0.26878540  0.18152203     0.39000
O31         O  0.25632222  0.25931318  0.19991821    -1.09300
O32         O  0.27760371  0.26788182  0.26131505    -0.65900
Ni33       Ni  0.24755364  0.28355641  0.23486859     1.26300
O34         O  0.20159380  0.24311574  0.18498502    -0.66200
O35         O  0.27218023  0.31483624  0.22233945    -0.78400
C36         C  0.21116689  0.31275544  0.27621440     0.85000
O37         O  0.23716199  0.30630161  0.27012664    -0.65600
Ni38       Ni  0.29630834  0.24960201  0.19312991     1.27400
Ni39       Ni  0.23162011  0.22767916  0.21154859     1.26100
H40         H  0.23106762  0.24220720  0.26442913     0.39500
O41         O  0.68737134  0.20731956  0.21599503    -0.80400
O42         O  0.79167139  0.25284541  0.13892208    -0.65100
O43         O  0.74004869  0.23690145  0.20511655    -1.11700
C44         C  0.68715077  0.31730160  0.16620104     1.06500
O45         O  0.79063416  0.30112356  0.14654781    -0.78300
O46         O  0.75961899  0.31937735  0.19642983    -0.65900
Ni47       Ni  0.72812634  0.19769511  0.21420484     1.34900
C48         C  0.74548001  0.31280835  0.22039164     0.85200
O49         O  0.79369456  0.21527369  0.18592756    -0.78800
O50         O  0.76746669  0.18399718  0.21407919    -0.89100
C51         C  0.80183821  0.27828746  0.13425916     0.84800
O52         O  0.72306708  0.18418067  0.17281788    -0.67300
O53         O  0.71187820  0.32710365  0.15884880    -0.86600
C54         C  0.73389652  0.19178033  0.14728425     0.85600
C55         C  0.79104957  0.19202493  0.20186773     1.07200
H56         H  0.72896045  0.26573840  0.13962550     0.39000
O57         O  0.73770507  0.27192456  0.15893505    -1.09300
O58         O  0.72604837  0.29322499  0.22014234    -0.65900
Ni59       Ni  0.71121056  0.26426245  0.19153058     1.26300
O60         O  0.74948794  0.21453723  0.14408342    -0.66200
O61         O  0.68317589  0.29162951  0.17663467    -0.78400
C62         C  0.67631345  0.22948680  0.22951994     0.85000
O63         O  0.68554135  0.25506313  0.22427702    -0.65600
Ni64       Ni  0.75055414  0.31165620  0.15388434     1.27400
Ni65       Ni  0.76600720  0.24363347  0.17187170     1.26100
H66         H  0.74917227  0.24432343  0.22375099     0.39500
O67         O  0.79116014  0.71059839  0.16541659    -0.80400
O68         O  0.68314070  0.75417341  0.23865076    -0.65100
O69         O  0.73750459  0.73768151  0.17601961    -1.11700
C70         C  0.78562411  0.81992808  0.22243536     1.06500
O71         O  0.68328976  0.80055078  0.22432977    -0.78300
O72         O  0.72157142  0.82719503  0.18770838    -0.65900
Ni73       Ni  0.75162621  0.69852243  0.16980256     1.34900
C74         C  0.73237667  0.81818966  0.16254661     0.85200
O75         O  0.68347289  0.71583224  0.19229470    -0.78800
O76         O  0.71344699  0.68191549  0.17230279    -0.89100
C77         C  0.67283933  0.77997651  0.24020014     0.84800
O78         O  0.75924906  0.68966156  0.21210897    -0.67300
O79         O  0.76131431  0.82683694  0.23421221    -0.86600
C80         C  0.74497717  0.69517544  0.23632712     0.85600
C81         C  0.68836883  0.69064392  0.18048491     1.07200
H82         H  0.74580110  0.76661040  0.24100098     0.39000
O83         O  0.73700622  0.77327352  0.22186815    -1.09300
O84         O  0.74721649  0.79459051  0.16077121    -0.65900
Ni85       Ni  0.76406685  0.76727476  0.19006937     1.26300
O86         O  0.72557961  0.71539129  0.23669724    -0.66200
O87         O  0.78981521  0.79737607  0.20522927    -0.78400
C88         C  0.80106550  0.73375008  0.15328124     0.85000
O89         O  0.79047887  0.75896329  0.15836467    -0.65600
Ni90       Ni  0.72276531  0.81234058  0.22898474     1.27400
Ni91       Ni  0.71004498  0.74437696  0.20763383     1.26100
H92         H  0.72873809  0.74381451  0.15667855     0.39500
O93         O  0.27644708  0.81130688  0.21024312    -0.80400
O94         O  0.24159885  0.69771933  0.27598880    -0.65100
O95         O  0.25425501  0.75548183  0.21439579    -1.11700
C96         C  0.17112366  0.79913981  0.26001444     1.06500
O97         O  0.19723165  0.69624453  0.25796579    -0.78300
O98         O  0.16821385  0.73476619  0.22334046    -0.65900
Ni99       Ni  0.29110542  0.77192317  0.20718744     1.34900
C100        C  0.17696645  0.74653112  0.19879751     0.85200
O101        O  0.28124824  0.70274522  0.23151099    -0.78800
O102        O  0.30804037  0.73359090  0.20332572    -0.89100
C103        C  0.21730180  0.68494234  0.27432869     0.84800
O104        O  0.30383596  0.77457139  0.24894327    -0.67300
O105        O  0.16561767  0.77373128  0.27095765    -0.86600
C106        C  0.29577205  0.76327579  0.27410725     0.85600
C107        C  0.30302307  0.70835814  0.21472112     1.07200
H108        H  0.22463262  0.76097393  0.27853299     0.39000
O109        O  0.21925472  0.75210937  0.25898530    -1.09300
O110        O  0.19856346  0.76340490  0.19798872    -0.65900
Ni111      Ni  0.22376873  0.78088475  0.22817532     1.26300
O112        O  0.27504554  0.74514760  0.27571373    -0.66200
O113        O  0.19280451  0.80486632  0.24314819    -0.78400
C114        C  0.25524599  0.82011038  0.19382770     0.85000
O115        O  0.23050843  0.80912448  0.19710213    -0.65600
Ni116      Ni  0.18238188  0.73530557  0.26471032     1.27400
Ni117      Ni  0.24983519  0.72679767  0.24565033     1.26100
H118        H  0.24845605  0.74641043  0.19508280     0.39500
O119        O  0.32437031  0.95861237  0.95526665    -0.73900
O120        O  0.31537266  0.02746329  0.00486758    -0.74000
O121        O  0.31287658  0.96911028  0.01472704    -0.74000
O122        O  0.32684181  0.01713231  0.94461622    -0.74100
O123        O  0.27962351  0.01951284  0.93487762    -0.74000
O124        O  0.26571591  0.96896528  0.00281508    -0.74000
O125        O  0.26778709  0.02745450  0.99518400    -0.74000
O126        O  0.27731144  0.96044798  0.94306037    -0.74000
Ni127      Ni  0.32159935  0.99314349  0.98016732     1.25400
Ni128      Ni  0.27093402  0.99420052  0.96844607     1.25400
C129        C  0.30208987  0.94773058  0.94186403     0.88200
C130        C  0.28997225  0.03807935  0.00900134     0.88200
C131        C  0.28705507  0.96067189  0.01983038     0.88200
C132        C  0.30550473  0.02688035  0.92842039     0.88400
O133        O  0.98511473  0.30640523  0.97910519    -0.73900
O134        O  0.05004826  0.29950960  0.92457828    -0.74000
O135        O  0.99193257  0.30433489  0.91688045    -0.74000
O136        O  0.04342243  0.30156328  0.98654742    -0.74100
O137        O  0.03892342  0.25314153  0.98824986    -0.74000
O138        O  0.98899788  0.25542380  0.91753780    -0.74000
O139        O  0.04686416  0.25075695  0.92618576    -0.74000
O140        O  0.98101560  0.25761457  0.97920219    -0.74000
Ni141      Ni  0.01774900  0.30470400  0.95175306     1.25400
Ni142      Ni  0.01387191  0.25251406  0.95285034     1.25400
C143        C  0.97222482  0.28309815  0.98794722     0.88200
C144        C  0.05915007  0.27398274  0.91625144     0.88200
C145        C  0.98204313  0.28027596  0.90573122     0.88200
C146        C  0.04973317  0.27688422  0.99914424     0.88400
O147        O  0.70590405  0.02504249  0.90162158    -0.73900
O148        O  0.69989674  0.96974319  0.96844737    -0.74000
O149        O  0.69952541  0.02953424  0.96363192    -0.74000
O150        O  0.70596750  0.96536346  0.90611102    -0.74100
O151        O  0.75387456  0.96460940  0.91304884    -0.74000
O152        O  0.74747738  0.03005397  0.96903111    -0.74000
O153        O  0.74781067  0.97081833  0.97505150    -0.74000
O154        O  0.75396694  0.02405352  0.90704579    -0.74000
Ni155      Ni  0.70110279  0.99738555  0.93473945     1.25400
Ni156      Ni  0.75246675  0.99738621  0.94123853     1.25400
C157        C  0.73101787  0.03355652  0.89335798     0.88200
C158        C  0.72294536  0.96142956  0.98292329     0.88200
C159        C  0.72245677  0.04061005  0.97565804     0.88200
C160        C  0.73092168  0.95431159  0.90025818     0.88400
O161        O  0.03616558  0.68548309  0.00898100    -0.73900
O162        O  0.98279107  0.67610437  0.94091898    -0.74000
O163        O  0.04088795  0.67560175  0.94740080    -0.74000
O164        O  0.97782752  0.68567595  0.00234399    -0.74100
O165        O  0.97988362  0.73406331  0.99629463    -0.74000
O166        O  0.04040751  0.72389962  0.93847040    -0.74000
O167        O  0.98217417  0.72481546  0.93468870    -0.74000
O168        O  0.03790063  0.73369344  0.99971326    -0.74000
Ni169      Ni  0.00941065  0.67893108  0.97524883     1.25400
Ni170      Ni  0.01008053  0.73081916  0.96697941     1.25400
C171        C  0.04588516  0.71117020  0.01526081     0.88200
C172        C  0.97371438  0.69914597  0.92674991     0.88200
C173        C  0.05076985  0.69812623  0.93363457     0.88200
C174        C  0.96855921  0.71155563  0.00875270     0.88400
O175        O  0.32008901  0.75813260  0.79500312    -0.80400
O176        O  0.27725511  0.70244617  0.67563819    -0.65100
O177        O  0.29265039  0.75924806  0.73780054    -1.11700
C178        C  0.21395981  0.71316479  0.78675954     1.06500
O179        O  0.23136977  0.71564472  0.67693593    -0.78300
O180        O  0.20560375  0.74910793  0.72005219    -0.65900
Ni181      Ni  0.33080622  0.76567692  0.75306701     1.34900
C182        C  0.21369706  0.77234537  0.73375571     0.85200
O183        O  0.31487860  0.74671600  0.68013394    -0.78800
O184        O  0.34362179  0.77349678  0.71205516    -0.89100
C185        C  0.25185393  0.70137417  0.66444292     0.84800
O186        O  0.34662112  0.72689724  0.75004808    -0.67300
O187        O  0.20660068  0.70363861  0.76002387    -0.86600
C188        C  0.33829744  0.70356363  0.73666584     0.85600
C189        C  0.33642677  0.76335044  0.68552513     1.07200
H190        H  0.26504857  0.69739961  0.74233087     0.39000
O191        O  0.25830359  0.71608295  0.73431583    -1.09300
O192        O  0.23657139  0.77358918  0.75051936    -0.65900
Ni193      Ni  0.26460174  0.74459594  0.76558456     1.26300
O194        O  0.31448544  0.70213546  0.72161206    -0.66200
O195        O  0.23619597  0.72881463  0.79223040    -0.78400
C196        C  0.29992570  0.77248223  0.80799954     0.85000
O197        O  0.27445167  0.77230544  0.79678952    -0.65600
Ni198      Ni  0.22018173  0.70981758  0.71896806     1.27400
Ni199      Ni  0.28644138  0.73073783  0.70659153     1.26100
H200        H  0.28586481  0.77786261  0.72977916     0.39500
O201        O  0.99800141  0.95587700  0.71826576    -0.73900
O202        O  0.05988565  0.01071981  0.72633952    -0.74000
O203        O  0.00168563  0.01503151  0.71720584    -0.74000
O204        O  0.05617153  0.95135563  0.72729862    -0.74100
O205        O  0.06195998  0.94930281  0.67630564    -0.74000
O206        O  0.00839345  0.01439812  0.66664775    -0.74000
O207        O  0.06676612  0.00850767  0.67541425    -0.74000
O208        O  0.00369726  0.95492429  0.66719555    -0.74000
Ni209      Ni  0.02872664  0.98328912  0.72405293     1.25400
Ni210      Ni  0.03540648  0.98172935  0.66955748     1.25400
C211        C  0.99042293  0.94660981  0.69140605     0.88200
C212        C  0.07369696  0.01833646  0.70223907     0.88200
C213        C  0.99570584  0.02541552  0.69035003     0.88200
C214        C  0.06834143  0.93996830  0.70353921     0.88400
O215        O  0.32569136  0.19950809  0.75737537    -0.80400
O216        O  0.26694684  0.28963771  0.66752817    -0.65100
O217        O  0.29180012  0.24855861  0.73949535    -1.11700
C218        C  0.22025039  0.18002442  0.70579649     1.06500
O219        O  0.22111912  0.28388757  0.68046223    -0.78300
O220        O  0.20203866  0.24787594  0.72513954    -0.65900
Ni221      Ni  0.33172178  0.24038863  0.74783446     1.34900
C222        C  0.21191429  0.24366597  0.75223756     0.85200
O223        O  0.30591507  0.30175072  0.71173356    -0.78800
O224        O  0.34151401  0.28059555  0.74018866    -0.89100
C225        C  0.24062633  0.29770033  0.66617486     0.84800
O226        O  0.34284713  0.22960237  0.70695853    -0.67300
O227        O  0.21030127  0.20055512  0.68849118    -0.86600
C228        C  0.33355334  0.23744684  0.68049126     0.85600
C229        C  0.33015458  0.30250943  0.72612865     1.07200
H230        H  0.26513551  0.22463832  0.67860183     0.39000
O231        O  0.25706083  0.23595972  0.69537709    -1.09300
O232        O  0.23741415  0.23407478  0.75775217    -0.65900
Ni233      Ni  0.26692646  0.21598673  0.73237900     1.26300
O234        O  0.31037869  0.25238781  0.67635900    -0.66200
O235        O  0.24199012  0.18331828  0.72391932    -0.78400
C236        C  0.30526292  0.18907797  0.77323730     0.85000
O237        O  0.27927784  0.19713070  0.76902923    -0.65600
Ni238      Ni  0.21736861  0.24195552  0.68490514     1.27400
Ni239      Ni  0.28106131  0.26920978  0.70294641     1.26100
H240        H  0.28472516  0.25979854  0.75688692     0.39500
O241        O  0.81747423  0.28434541  0.72735076    -0.80400
O242        O  0.72739142  0.23902569  0.63271839    -0.65100
O243        O  0.76832730  0.25337430  0.70743682    -1.11700
C244        C  0.82947803  0.17533572  0.67492475     1.06500
O245        O  0.72966054  0.19051583  0.63727129    -0.78300
O246        O  0.75431608  0.16979818  0.69074058    -0.65900
Ni247      Ni  0.77680109  0.29241943  0.72086089     1.34900
C248        C  0.76471155  0.17597418  0.71730622     0.85200
O249        O  0.71668358  0.27468084  0.68025966    -0.78800
O250        O  0.73677401  0.30400208  0.71650662    -0.89100
C251        C  0.71883105  0.21362347  0.62510126     0.84800
O252        O  0.78510847  0.30928756  0.68160548    -0.67300
O253        O  0.80658299  0.16595539  0.66159182    -0.86600
C254        C  0.77856470  0.30241767  0.65391998     0.85600
C255        C  0.71562068  0.29631356  0.69915746     1.07200
H256        H  0.78947340  0.22800745  0.64362126     0.39000
O257        O  0.77843819  0.22051762  0.66063632    -1.09300
O258        O  0.78233015  0.19686314  0.72178739    -0.65900
Ni259      Ni  0.79978009  0.22731729  0.69784332     1.26300
O260        O  0.76594982  0.27843849  0.64688950    -0.66200
O261        O  0.83084908  0.20073030  0.68745651    -0.78400
C262        C  0.82832951  0.26208016  0.74104251     0.85000
O263        O  0.82002481  0.23635018  0.73480871    -0.65600
Ni264      Ni  0.76845618  0.18063402  0.65085247     1.27400
Ni265      Ni  0.74747530  0.24753469  0.66991914     1.26100
H266        H  0.75707379  0.24476045  0.72368954     0.39500
O267        O  0.72038310  0.78623176  0.65865427    -0.80400
O268        O  0.82819871  0.74347677  0.74046099    -0.65100
O269        O  0.77340602  0.75863458  0.67564810    -1.11700
C270        C  0.72510510  0.67899359  0.72358714     1.06500
O271        O  0.82846614  0.69701057  0.72710252    -0.78300
O272        O  0.78942578  0.67003229  0.68906888    -0.65900
Ni273      Ni  0.75913667  0.79804058  0.66977249     1.34900
C274        C  0.77664752  0.67806614  0.66435034     0.85200
O275        O  0.82757293  0.78043821  0.69285866    -0.78800
O276        O  0.79638623  0.81538643  0.67764381    -0.89100
C277        C  0.83892275  0.71785730  0.74321785     0.84800
O278        O  0.74814320  0.80371850  0.71184702    -0.67300
O279        O  0.74978957  0.67106801  0.73448265    -0.86600
C280        C  0.76360802  0.79923884  0.73591407     0.85600
C281        C  0.82192970  0.80649488  0.68411557     1.07200
H282        H  0.76614609  0.73130804  0.74167310     0.39000
O283        O  0.77444831  0.72429288  0.72254495    -1.09300
O284        O  0.76153680  0.70143045  0.66239924    -0.65900
Ni285      Ni  0.74666681  0.73029898  0.69085447     1.26300
O286        O  0.78527083  0.78160312  0.73618491    -0.66200
O287        O  0.72098140  0.70199815  0.70731500    -0.78400
C288        C  0.70914505  0.76196983  0.65044623     0.85000
O289        O  0.71917417  0.73741809  0.65912005    -0.65600
Ni290      Ni  0.78860939  0.68533392  0.73033153     1.27400
Ni291      Ni  0.80121760  0.75237311  0.70813881     1.26100
H292        H  0.78150898  0.75198096  0.65658986     0.39500
O293        O  0.49428359  0.46491480  0.75285536    -0.73900
O294        O  0.55478813  0.52106231  0.75712690    -0.74000
O295        O  0.49626372  0.52420141  0.75781300    -0.74000
O296        O  0.55281929  0.46166270  0.75131343    -0.74100
O297        O  0.55037778  0.46506632  0.69992039    -0.74000
O298        O  0.49596435  0.52871904  0.70650077    -0.74000
O299        O  0.55441402  0.52432571  0.70564672    -0.74000
O300        O  0.49199563  0.46958086  0.70153784    -0.74000
Ni301      Ni  0.52461096  0.49281589  0.75661597     1.25400
Ni302      Ni  0.52317654  0.49707581  0.70156973     1.25400
C303        C  0.48302865  0.45818257  0.72666210     0.88200
C304        C  0.56457105  0.53189154  0.73218414     0.88200
C305        C  0.48688723  0.53679039  0.73308861     0.88200
C306        C  0.56055590  0.45283986  0.72438727     0.88400
O307        O  0.51065871  0.47461545  0.13666801    -0.73900
O308        O  0.45657388  0.53774844  0.14816369    -0.74000
O309        O  0.51456711  0.53400429  0.14101011    -0.74000
O310        O  0.45236740  0.47847561  0.14400835    -0.74100
O311        O  0.45878138  0.47521549  0.19507970    -0.74000
O312        O  0.52014368  0.53049402  0.19214050    -0.74000
O313        O  0.46209658  0.53375506  0.19891701    -0.74000
O314        O  0.51657982  0.47146147  0.18782610    -0.74000
Ni315      Ni  0.48336056  0.50629500  0.14056767     1.25400
Ni316      Ni  0.48966868  0.50260155  0.19524092     1.25400
C317        C  0.52253580  0.46272366  0.16046533     0.88200
C318        C  0.44999658  0.54606865  0.17552573     0.88200
C319        C  0.52746346  0.54145571  0.16622884     0.88200
C320        C  0.44503196  0.46825223  0.17033581     0.88400
O321        O  0.73843578  0.52437619  0.41384377    -0.73900
O322        O  0.75016900  0.46344305  0.47418605    -0.74000
O323        O  0.74590360  0.52300946  0.47611494    -0.74000
O324        O  0.74319875  0.46436521  0.41156937    -0.74100
O325        O  0.79096494  0.46786221  0.40606807    -0.74000
O326        O  0.79343859  0.52606673  0.47027174    -0.74000
O327        O  0.79765478  0.46609733  0.46851028    -0.74000
O328        O  0.78613200  0.52756119  0.40837411    -0.74000
Ni329      Ni  0.74272824  0.49361341  0.44406258     1.25400
Ni330      Ni  0.79370854  0.49696476  0.43810965     1.25400
C331        C  0.76041159  0.53662900  0.40173361     0.88200
C332        C  0.77572483  0.45451075  0.48154554     0.88200
C333        C  0.77024081  0.53450765  0.48371350     0.88200
C334        C  0.76673819  0.45649041  0.39830063     0.88400
O335        O  0.53250487  0.75527140  0.48613018    -0.73900
O336        O  0.46948010  0.76219080  0.42926374    -0.74000
O337        O  0.52748521  0.76098083  0.42425893    -0.74000
O338        O  0.47467712  0.75719565  0.49107586    -0.74100
O339        O  0.47609821  0.80605036  0.49556658    -0.74000
O340        O  0.52803239  0.80994771  0.42878118    -0.74000
O341        O  0.46999575  0.81110713  0.43419188    -0.74000
O342        O  0.53408268  0.80414681  0.49068086    -0.74000
Ni343      Ni  0.50103028  0.75714275  0.45746524     1.25400
Ni344      Ni  0.50217332  0.80957749  0.46244973     1.25400
C345        C  0.54341951  0.77845462  0.49806543     0.88200
C346        C  0.45909751  0.78759972  0.42279204     0.88200
C347        C  0.53605824  0.78622115  0.41541342     0.88200
C348        C  0.46682341  0.78114148  0.50435140     0.88400
O349        O  0.20671837  0.46488680  0.45630208    -0.73900
O350        O  0.21452667  0.53360480  0.50541214    -0.74000
O351        O  0.21233053  0.47541776  0.51703695    -0.74000
O352        O  0.20894588  0.52251631  0.44481251    -0.74100
O353        O  0.16087186  0.52627159  0.44862769    -0.74000
O354        O  0.16433270  0.47826914  0.52122062    -0.74000
O355        O  0.16654678  0.53711572  0.50965205    -0.74000
O356        O  0.15867450  0.46774499  0.45987917    -0.74000
Ni357      Ni  0.21228341  0.49899456  0.48086431     1.25400
Ni358      Ni  0.16080273  0.50244718  0.48508892     1.25400
C359        C  0.18155967  0.45515457  0.44960536     0.88200
C360        C  0.19194466  0.54716149  0.51489096     0.88200
C361        C  0.18897466  0.46840805  0.53059170     0.88200
C362        C  0.18451827  0.53222415  0.43497184     0.88400
O363        O  0.47334603  0.23915400  0.48609596    -0.73900
O364        O  0.52459863  0.24095148  0.41713784    -0.74000
O365        O  0.46657397  0.24163310  0.42409040    -0.74000
O366        O  0.53161515  0.23836088  0.47912845    -0.74100
O367        O  0.53149003  0.18934949  0.47622649    -0.74000
O368        O  0.46572491  0.19254719  0.42242566    -0.74000
O369        O  0.52382853  0.19203164  0.41436350    -0.74000
O370        O  0.47345708  0.19012651  0.48432016    -0.74000
Ni371      Ni  0.49904363  0.24177771  0.45173813     1.25400
Ni372      Ni  0.49860780  0.18926054  0.44926562     1.25400
C373        C  0.46481596  0.21438763  0.49644487     0.88200
C374        C  0.53270068  0.21682758  0.40433785     0.88200
C375        C  0.45545323  0.21760242  0.41439700     0.88200
C376        C  0.54250904  0.21328603  0.48627318     0.88400
C377        C  0.65771897  0.74373292  0.58391895    -0.05000
C378        C  0.63601214  0.76525963  0.58801250     0.09200
C379        C  0.63750208  0.78489855  0.61322139    -0.02400
C380        C  0.66086489  0.78321103  0.63432411    -0.00600
C381        C  0.68336575  0.76239053  0.62969462    -0.04200
C382        C  0.68165415  0.74260561  0.60430853     0.02800
C383        C  0.61224361  0.76831679  0.56476365     0.09600
C384        C  0.61518345  0.80723527  0.61699117     0.35500
C385        C  0.70517204  0.72215892  0.59789890     0.38900
C386        C  0.58632750  0.75275129  0.56836480    -0.04600
C387        C  0.56370927  0.75615228  0.54656243     0.02500
C388        C  0.56702686  0.77522586  0.52111150    -0.04200
C389        C  0.59308647  0.79070361  0.51754060    -0.00400
C390        C  0.61568669  0.78716369  0.53931894    -0.03000
C391        C  0.58299499  0.73337006  0.59460858     0.36300
C392        C  0.59702893  0.80953489  0.49096733     0.39900
C393        C  0.53674427  0.74065956  0.55086988     0.39000
C394        C  0.64264395  0.80274936  0.53556203     0.35900
C395        C  0.65565462  0.72317368  0.55824116     0.36600
C396        C  0.66143994  0.80272397  0.66094524     0.39900
N397        N  0.51525357  0.72830434  0.55430043    -0.38200
N398        N  0.58038857  0.71792160  0.61555415    -0.39800
N399        N  0.60014404  0.82451577  0.46973802    -0.37500
N400        N  0.66421228  0.81508567  0.53266336    -0.39900
N401        N  0.59742150  0.82512118  0.61979030    -0.39700
N402        N  0.66184728  0.81831800  0.68215250    -0.37300
N403        N  0.72381693  0.70581525  0.59256028    -0.38400
N404        N  0.65394540  0.70673133  0.53782408    -0.40000
C405        C  0.74875884  0.59764426  0.53850812    -0.05000
C406        C  0.77404980  0.60066267  0.55671021     0.09200
C407        C  0.79864809  0.58346600  0.54984010    -0.02400
C408        C  0.79742518  0.56176322  0.52642071    -0.00600
C409        C  0.77175538  0.55789746  0.50841154    -0.04200
C410        C  0.74776529  0.57691894  0.51403668     0.02800
C411        C  0.77451822  0.62097453  0.58414845     0.09600
C412        C  0.82540561  0.58829972  0.56693713     0.35500
C413        C  0.72239121  0.57629812  0.49397992     0.38900
C414        C  0.76534037  0.61075452  0.61312398    -0.04600
C415        C  0.76670780  0.62924627  0.63937043     0.02500
C416        C  0.77745994  0.65818390  0.63692388    -0.04200
C417        C  0.78621452  0.66854455  0.60775919    -0.00400
C418        C  0.78460359  0.65002867  0.58144803    -0.03000
C419        C  0.75383098  0.58131049  0.61571716     0.36300
C420        C  0.79714490  0.69815618  0.60485528     0.39900
C421        C  0.75566470  0.61884577  0.66858889     0.39000
C422        C  0.79276456  0.66095819  0.55140153     0.35900
C423        C  0.72378446  0.61613682  0.54498145     0.36600
C424        C  0.82263781  0.54308659  0.52175574     0.39900
N425        N  0.74670818  0.61045762  0.69177132    -0.38200
N426        N  0.74448966  0.55788973  0.61769174    -0.39800
N427        N  0.80588599  0.72178287  0.60248478    -0.37500
N428        N  0.79905076  0.66964841  0.52732393    -0.39900
N429        N  0.84683251  0.59243065  0.58030374    -0.39700
N430        N  0.84286678  0.52833814  0.51812248    -0.37300
N431        N  0.70220616  0.57607664  0.47788063    -0.38400
N432        N  0.70394253  0.63095359  0.55027449    -0.40000
C433        C  0.65714136  0.63478019  0.70793574    -0.05000
C434        C  0.65470418  0.61892402  0.73563465     0.09200
C435        C  0.67410077  0.62422513  0.76039945    -0.02400
C436        C  0.69624841  0.64508459  0.75722602    -0.00600
C437        C  0.69996613  0.65956987  0.72864653    -0.04200
C438        C  0.68029461  0.65407142  0.70393723     0.02800
C439        C  0.63260678  0.59539094  0.73748386     0.09600
C440        C  0.67161919  0.60773517  0.78884323     0.35500
C441        C  0.68486735  0.66631244  0.67348706     0.38900
C442        C  0.63652144  0.56916419  0.72037909    -0.04600
C443        C  0.61422055  0.54838627  0.71858702     0.02500
C444        C  0.58805754  0.55357726  0.73424672    -0.04200
C445        C  0.58448057  0.57940778  0.75216225    -0.00400
C446        C  0.60672835  0.60032997  0.75369359    -0.03000
C447        C  0.66338310  0.56391675  0.70410925     0.36300
C448        C  0.55740698  0.58513014  0.76784650     0.39900
C449        C  0.61834947  0.52150712  0.70091528     0.39000
C450        C  0.60273064  0.62733540  0.77116075     0.35900
C451        C  0.63603622  0.63065052  0.68317139     0.36600
C452        C  0.71493647  0.65173506  0.78347581     0.39900
N453        N  0.62161863  0.50007841  0.68680954    -0.38200
N454        N  0.68477744  0.55992949  0.69104649    -0.39800
N455        N  0.53579136  0.58973009  0.78028417    -0.37500
N456        N  0.59965005  0.64885722  0.78515662    -0.39900
N457        N  0.66965914  0.59454257  0.81152026    -0.39700
N458        N  0.72975873  0.65709829  0.80446838    -0.37300
N459        N  0.68846476  0.67560943  0.64900926    -0.38400
N460        N  0.61915154  0.62738703  0.66351489    -0.40000
C461        C  0.75920642  0.39129226  0.53775055    -0.05000
C462        C  0.78570754  0.38776633  0.55376765     0.09200
C463        C  0.80937925  0.40526268  0.54558475    -0.02400
C464        C  0.80652543  0.42654973  0.52183965    -0.00600
C465        C  0.77967830  0.43066569  0.50573494    -0.04200
C466        C  0.75623320  0.41207816  0.51366207     0.02800
C467        C  0.78798198  0.36621517  0.58007283     0.09600
C468        C  0.83665736  0.40163150  0.56214129     0.35500
C469        C  0.72892975  0.41339324  0.49678020     0.38900
C470        C  0.79328274  0.33607584  0.57434175    -0.04600
C471        C  0.79174335  0.31532772  0.59859362     0.02500
C472        C  0.78426438  0.32444587  0.62888490    -0.04200
C473        C  0.77991132  0.35501530  0.63462043    -0.00400
C474        C  0.78223767  0.37565307  0.61046156    -0.03000
C475        C  0.79983015  0.32641054  0.54320710     0.36300
C476        C  0.77092295  0.36543213  0.66482402     0.39900
C477        C  0.79801294  0.28461679  0.59220283     0.39000
C478        C  0.77780494  0.40675005  0.61664506     0.35900
C479        C  0.73463110  0.37370196  0.54664020     0.36600
C480        C  0.83143400  0.44431562  0.51470830     0.39900
N481        N  0.80300761  0.26012229  0.58699481    -0.38200
N482        N  0.80502226  0.31877068  0.51831920    -0.39800
N483        N  0.76358844  0.37381025  0.68881310    -0.37500
N484        N  0.77442708  0.43156848  0.62156067    -0.39900
N485        N  0.85838557  0.39877175  0.57541665    -0.39700
N486        N  0.85151118  0.45823657  0.50908578    -0.37300
N487        N  0.70708435  0.41419424  0.48342572    -0.38400
N488        N  0.71508483  0.35973616  0.55393074    -0.40000
C489        C  0.66618096  0.23153062  0.55921757    -0.05000
C490        C  0.64589800  0.20891942  0.56223606     0.09200
C491        C  0.65039418  0.18653318  0.58412024    -0.02400
C492        C  0.67448702  0.18752105  0.60430022    -0.00600
C493        C  0.69449945  0.21096595  0.60236207    -0.04200
C494        C  0.69065253  0.23238490  0.57882288     0.02800
C495        C  0.61908301  0.20938266  0.54300673     0.09600
C496        C  0.62978713  0.16275015  0.58616009     0.35500
C497        C  0.71205514  0.25502225  0.57397753     0.38900
C498        C  0.61798006  0.19370267  0.51489352    -0.04600
C499        C  0.59287781  0.19504834  0.49625467     0.02500
C500        C  0.56871089  0.21185209  0.50596153    -0.04200
C501        C  0.56980823  0.22734667  0.53430250    -0.00400
C502        C  0.59501132  0.22608834  0.55279585    -0.03000
C503        C  0.64278644  0.17637802  0.50513745     0.36300
C504        C  0.54483080  0.24400581  0.54481603     0.39900
C505        C  0.59239960  0.18010919  0.46652144     0.39000
C506        C  0.59628255  0.24188557  0.58199444     0.35900
C507        C  0.66154702  0.25416475  0.53606447     0.36600
C508        C  0.67783044  0.16470459  0.62745838     0.39900
N509        N  0.59199318  0.16829755  0.44277057    -0.38200
N510        N  0.66254474  0.16248686  0.49741464    -0.39800
N511        N  0.52491599  0.25729393  0.55319979    -0.37500
N512        N  0.59743271  0.25443070  0.60530083    -0.39900
N513        N  0.61337460  0.14377379  0.58766198    -0.39700
N514        N  0.68041503  0.14631255  0.64571667    -0.37300
N515        N  0.72899571  0.27312409  0.56989014    -0.38400
N516        N  0.65772074  0.27221798  0.51765811    -0.40000
C517        C  0.59432709  0.37989137  0.69886883    -0.05000
C518        C  0.62229961  0.38164901  0.71216075     0.09200
C519        C  0.62966479  0.40644418  0.73031929    -0.02400
C520        C  0.60929852  0.42937671  0.73501191    -0.00600
C521        C  0.58151295  0.42795195  0.72112578    -0.04200
C522        C  0.57410211  0.40303695  0.70308568     0.02800
C523        C  0.64410849  0.35736632  0.70727361     0.09600
C524        C  0.65843665  0.40846282  0.74386579     0.35500
C525        C  0.54535653  0.40086191  0.68944780     0.38900
C526        C  0.66007830  0.35579704  0.67966157    -0.04600
C527        C  0.68198895  0.33417776  0.67605188     0.02500
C528        C  0.68888097  0.31473390  0.70051980    -0.04200
C529        C  0.67226406  0.31568806  0.72769098    -0.00400
C530        C  0.64964469  0.33658606  0.73082074    -0.03000
C531        C  0.65474665  0.37722810  0.65548584     0.36300
C532        C  0.67857563  0.29521358  0.75251225     0.39900
C533        C  0.69815542  0.33263609  0.64754711     0.39000
C534        C  0.63224726  0.33708535  0.75848003     0.35900
C535        C  0.58628865  0.35402915  0.68115589     0.36600
C536        C  0.61729895  0.45490154  0.75330708     0.39900
N537        N  0.71086353  0.33127541  0.62469646    -0.38200
N538        N  0.65059273  0.39443478  0.63627197    -0.39800
N539        N  0.68360702  0.27886185  0.77232165    -0.37500
N540        N  0.61821989  0.33755836  0.78045219    -0.39900
N541        N  0.68141829  0.40997014  0.75463757    -0.39700
N542        N  0.62364910  0.47528047  0.76789905    -0.37300
N543        N  0.52241063  0.39916402  0.67861149    -0.38400
N544        N  0.57988287  0.33333187  0.66710820    -0.40000
C545        C  0.39929753  0.23096209  0.54652416    -0.05000
C546        C  0.40593313  0.21463621  0.57345021     0.09200
C547        C  0.43132189  0.19703402  0.57438831    -0.02400
C548        C  0.45060789  0.19694588  0.54928152    -0.00600
C549        C  0.44431102  0.21389685  0.52268677    -0.04200
C550        C  0.41836280  0.23060235  0.52128316     0.02800
C551        C  0.38766294  0.21843694  0.60175672     0.09600
C552        C  0.43782027  0.17936969  0.60146819     0.35500
C553        C  0.41107580  0.24732517  0.49372533     0.38900
C554        C  0.35929698  0.20710956  0.60280386    -0.04600
C555        C  0.34132143  0.21345554  0.62829219     0.02500
C556        C  0.35192426  0.23037726  0.65337321    -0.04200
C557        C  0.38054134  0.24110617  0.65258498    -0.00400
C558        C  0.39822416  0.23527800  0.62690154    -0.03000
C559        C  0.34866965  0.18888560  0.57761591     0.36300
C560        C  0.39148437  0.25939304  0.67763500     0.39900
C561        C  0.31203721  0.20235494  0.62876980     0.39000
C562        C  0.42722847  0.24719002  0.62606169     0.35900
C563        C  0.37297493  0.24856678  0.54497945     0.36600
C564        C  0.47777231  0.18078825  0.55158695     0.39900
N565        N  0.28865655  0.19348471  0.62892572    -0.38200
N566        N  0.34021234  0.17436378  0.55748287    -0.39800
N567        N  0.40027309  0.27405043  0.69749620    -0.37500
N568        N  0.45043002  0.25648642  0.62540063    -0.39900
N569        N  0.44306229  0.16529998  0.62308085    -0.39700
N570        N  0.49957478  0.16814369  0.55341713    -0.37300
N571        N  0.40522837  0.26064843  0.47175289    -0.38400
N572        N  0.35182728  0.26236550  0.54372743    -0.40000
C573        C  0.20442174  0.37038719  0.64535595    -0.05000
C574        C  0.21298270  0.37361195  0.61445386     0.09200
C575        C  0.23154591  0.35258693  0.60081690    -0.02400
C576        C  0.24117631  0.32802714  0.61790667    -0.00600
C577        C  0.23224799  0.32445228  0.64876810    -0.04200
C578        C  0.21422404  0.34600556  0.66261427     0.02800
C579        C  0.20365739  0.39993812  0.59646483     0.09600
C580        C  0.24073094  0.35634718  0.56913819     0.35500
C581        C  0.20669737  0.34377870  0.69499391     0.38900
C582        C  0.22035137  0.42564729  0.59797303    -0.04600
C583        C  0.21379826  0.44936240  0.57826496     0.02500
C584        C  0.19098898  0.44709742  0.55631755    -0.04200
C585        C  0.17306946  0.42203328  0.55630264    -0.00400
C586        C  0.17937229  0.39855028  0.57650895    -0.03000
C587        C  0.24509904  0.42705923  0.61887244     0.36300
C588        C  0.14941528  0.41936008  0.53412448     0.39900
C589        C  0.23077544  0.47599177  0.58035173     0.39000
C590        C  0.16167325  0.37238394  0.57588216     0.35900
C591        C  0.18564313  0.39230955  0.65934407     0.36600
C592        C  0.25967638  0.30612670  0.60343001     0.39900
N593        N  0.24426236  0.49725525  0.58204719    -0.38200
N594        N  0.26489281  0.42796781  0.63547788    -0.39800
N595        N  0.13056897  0.41721491  0.51641807    -0.37500
N596        N  0.14754603  0.35151748  0.57536263    -0.39900
N597        N  0.24803417  0.35942745  0.54387914    -0.39700
N598        N  0.27448573  0.28868345  0.59193397    -0.37300
N599        N  0.20086212  0.34208840  0.72086196    -0.38400
N600        N  0.17065329  0.40982945  0.67043268    -0.40000
C601        C  0.37619741  0.36612024  0.75382611    -0.05000
C602        C  0.38866511  0.37508746  0.72577821     0.09200
C603        C  0.37928050  0.36228627  0.69761623    -0.02400
C604        C  0.35781262  0.34049386  0.69755308    -0.00600
C605        C  0.34719766  0.32984115  0.72580567    -0.04200
C606        C  0.35628921  0.34286707  0.75393214     0.02800
C607        C  0.41288731  0.39670139  0.72605306     0.09600
C608        C  0.39289024  0.37036879  0.66886747     0.35500
C609        C  0.34561408  0.33188198  0.78305614     0.38900
C610        C  0.44006323  0.38870045  0.73899031    -0.04600
C611        C  0.46287096  0.40898701  0.73956539     0.02500
C612        C  0.45915332  0.43684472  0.72571431    -0.04200
C613        C  0.43228211  0.44460880  0.71203034    -0.00400
C614        C  0.40899923  0.42485716  0.71287234    -0.03000
C615        C  0.44471471  0.35937733  0.75130724     0.36300
C616        C  0.42832643  0.47326461  0.69787984     0.39900
C617        C  0.49036297  0.40095019  0.75395873     0.39000
C618        C  0.38093201  0.43361109  0.70047069     0.35900
C619        C  0.38446073  0.38030976  0.78267511     0.36600
C620        C  0.34787066  0.32789839  0.66847245     0.39900
N621        N  0.51222743  0.39465181  0.76559096    -0.38200
N622        N  0.44839811  0.33600947  0.76116393    -0.39800
N623        N  0.42529830  0.49608323  0.68649411    -0.37500
N624        N  0.35856251  0.44055651  0.69048833    -0.39900
N625        N  0.40390020  0.37681705  0.64602709    -0.39700
N626        N  0.33980770  0.31800906  0.64526325    -0.37300
N627        N  0.33728001  0.32290201  0.80626310    -0.38400
N628        N  0.39109560  0.39157000  0.80569703    -0.40000
C629        C  0.92056287  0.91108992  0.66307353    -0.05000
C630        C  0.91805597  0.88771763  0.68414987     0.09200
C631        C  0.93938705  0.88348144  0.70733626    -0.02400
C632        C  0.96351271  0.90211079  0.70902842    -0.00600
C633        C  0.96577470  0.92604309  0.68844393    -0.04200
C634        C  0.94400649  0.93059071  0.66559752     0.02800
C635        C  0.89283821  0.86749375  0.68218534     0.09600
C636        C  0.93627730  0.86004753  0.72968555     0.35500
C637        C  0.94489465  0.95601769  0.64551901     0.38900
C638        C  0.89658083  0.83861844  0.67083927    -0.04600
C639        C  0.87330862  0.81885381  0.67081516     0.02500
C640        C  0.84601552  0.82786160  0.68221523    -0.04200
C641        C  0.84210520  0.85727854  0.69257044    -0.00400
C642        C  0.86550245  0.87689635  0.69266298    -0.03000
C643        C  0.92456331  0.82923917  0.65933180     0.36300
C644        C  0.81438105  0.86736112  0.70424975     0.39900
C645        C  0.87742844  0.78946978  0.65830513     0.39000
C646        C  0.86163974  0.90668664  0.70418358     0.35900
C647        C  0.89888407  0.91508262  0.63886461     0.36600
C648        C  0.98645021  0.89596277  0.73135112     0.39900
N649        N  0.88072511  0.76604380  0.64832264    -0.38200
N650        N  0.94693695  0.82178625  0.65029402    -0.39800
N651        N  0.79231997  0.87553174  0.71352208    -0.37500
N652        N  0.85853198  0.93047212  0.71324240    -0.39900
N653        N  0.93366072  0.84138036  0.74749399    -0.39700
N654        N  0.00482602  0.89096433  0.74902311    -0.37300
N655        N  0.94534149  0.97635108  0.62955946    -0.38400
N656        N  0.88155271  0.91821270  0.61959468    -0.40000
C657        C  0.90761196  0.14535307  0.67310331    -0.05000
C658        C  0.90335836  0.11510920  0.67847546     0.09200
C659        C  0.87506441  0.10481684  0.68309988    -0.02400
C660        C  0.85119198  0.12446040  0.68231380    -0.00600
C661        C  0.85521462  0.15488021  0.67650307    -0.04200
C662        C  0.88374979  0.16518319  0.67226230     0.02800
C663        C  0.92868318  0.09405682  0.68103187     0.09600
C664        C  0.87059411  0.07382791  0.68909379     0.35500
C665        C  0.88869772  0.19611573  0.66661312     0.38900
C666        C  0.93983848  0.08638517  0.71033533    -0.04600
C667        C  0.96199064  0.06484511  0.71340986     0.02500
C668        C  0.97339694  0.05010877  0.68688676    -0.04200
C669        C  0.96245990  0.05884071  0.65724479    -0.00400
C670        C  0.94039731  0.08062890  0.65452687    -0.03000
C671        C  0.92805554  0.10065152  0.73758635     0.36300
C672        C  0.97312635  0.04533765  0.62911105     0.39900
C673        C  0.97265732  0.05832374  0.74433371     0.39000
C674        C  0.92929318  0.08905566  0.62428439     0.35900
C675        C  0.93668892  0.15603999  0.66858069     0.36600
C676        C  0.82261908  0.11327831  0.68897241     0.39900
N677        N  0.98093398  0.05329951  0.76913115    -0.38200
N678        N  0.91852143  0.11206401  0.75919847    -0.39800
N679        N  0.98144051  0.03474175  0.60647860    -0.37500
N680        N  0.92047906  0.09587487  0.60018306    -0.39900
N681        N  0.86710200  0.04912247  0.69393801    -0.39700
N682        N  0.79989711  0.10429370  0.69437741    -0.37300
N683        N  0.89266435  0.22083213  0.66227109    -0.38400
N684        N  0.95991746  0.16451051  0.66491382    -0.40000
C685        C  0.11500109  0.08882243  0.71655489    -0.05000
C686        C  0.14342025  0.08011375  0.70884488     0.09200
C687        C  0.14919258  0.05068710  0.70031362    -0.02400
C688        C  0.12641898  0.03027932  0.69842031    -0.00600
C689        C  0.09786320  0.03923327  0.70537334    -0.04200
C690        C  0.09227432  0.06844255  0.71480830     0.02800
C691        C  0.16659182  0.10274449  0.70724011     0.09600
C692        C  0.17852720  0.04160165  0.69320269     0.35500
C693        C  0.06287005  0.07788925  0.72124722     0.38900
C694        C  0.18267957  0.11055227  0.73382989    -0.04600
C695        C  0.20142634  0.13489559  0.73321841     0.02500
C696        C  0.20460695  0.15131809  0.70556725    -0.04200
C697        C  0.19019115  0.14157726  0.67828433    -0.00400
C698        C  0.17092082  0.11779662  0.67933411    -0.03000
C699        C  0.17924737  0.09392987  0.76207166     0.36300
C700        C  0.19508490  0.15585574  0.64889641     0.39900
C701        C  0.21603183  0.14368229  0.76163754     0.39000
C702        C  0.15468000  0.10931401  0.65183838     0.35900
C703        C  0.10906070  0.11902028  0.72554838     0.36600
C704        C  0.13236272  0.00007349  0.68941982     0.39900
N705        N  0.22763204  0.15055808  0.78437030    -0.38200
N706        N  0.17659658  0.08058912  0.78455868    -0.39800
N707        N  0.19892579  0.16719530  0.62542554    -0.37500
N708        N  0.14158534  0.10253260  0.63002472    -0.39900
N709        N  0.20197471  0.03438915  0.68762027    -0.39700
N710        N  0.13713623  0.97599477  0.68220527    -0.37300
N711        N  0.03938647  0.08542101  0.72619527    -0.38400
N712        N  0.10430389  0.14310266  0.73273672    -0.40000
C713        C  0.18978518  0.60434641  0.57865235    -0.05000
C714        C  0.21151324  0.62354898  0.56864809     0.09200
C715        C  0.22327194  0.62032755  0.53899182    -0.02400
C716        C  0.21561186  0.59602850  0.52060777    -0.00600
C717        C  0.19585446  0.57510568  0.53181487    -0.04200
C718        C  0.18179071  0.58016757  0.56016358     0.02800
C719        C  0.22451272  0.64468618  0.59091897     0.09600
C720        C  0.24395122  0.64150659  0.52789041     0.35500
C721        C  0.16049585  0.55965269  0.57128483     0.38900
C722        C  0.24420105  0.63413839  0.61353595    -0.04600
C723        C  0.25444254  0.65309552  0.63684289     0.02500
C724        C  0.24536734  0.68286219  0.63720691    -0.04200
C725        C  0.22709344  0.69377174  0.61333228    -0.00400
C726        C  0.21650272  0.67460669  0.59033051    -0.03000
C727        C  0.25301683  0.60339457  0.61341542     0.36300
C728        C  0.21897917  0.72466658  0.61257423     0.39900
C729        C  0.27245597  0.64125985  0.66164422     0.39000
C730        C  0.19673397  0.68539461  0.56658983     0.35900
C731        C  0.17671446  0.60881609  0.60865979     0.36600
C732        C  0.22837933  0.59246686  0.49029540     0.39900
N733        N  0.28663161  0.63159734  0.68143722    -0.38200
N734        N  0.25987386  0.57885573  0.61327948    -0.39800
N735        N  0.21252520  0.74930894  0.61204604    -0.37500
N736        N  0.18099537  0.69398312  0.54760370    -0.39900
N737        N  0.26024079  0.65855350  0.51894151    -0.39700
N738        N  0.23860012  0.58967489  0.46615616    -0.37300
N739        N  0.14343490  0.54336821  0.58016482    -0.38400
N740        N  0.16643092  0.61243738  0.63264887    -0.40000
C741        C  0.40040452  0.75867896  0.63310068    -0.05000
C742        C  0.39075175  0.77618060  0.60822106     0.09200
C743        C  0.36385879  0.79095996  0.60930451    -0.02400
C744        C  0.34588757  0.78711547  0.63489495    -0.00600
C745        C  0.35550414  0.76945998  0.65973074    -0.04200
C746        C  0.38301540  0.75576264  0.65915534     0.02800
C747        C  0.40912402  0.77870090  0.58072489     0.09600
C748        C  0.35489865  0.81009282  0.58414297     0.35500
C749        C  0.39324694  0.73806661  0.68499104     0.38900
C750        C  0.40436269  0.76004678  0.55515522    -0.04600
C751        C  0.42268648  0.76146420  0.52959049     0.02500
C752        C  0.44684668  0.78028226  0.53052157    -0.04200
C753        C  0.45172784  0.79866637  0.55652901    -0.00400
C754        C  0.43237519  0.79839266  0.58121102    -0.03000
C755        C  0.38103153  0.73892882  0.55560003     0.36300
C756        C  0.47723422  0.81700418  0.55865468     0.39900
C757        C  0.41599149  0.74436639  0.50204950     0.39000
C758        C  0.43655242  0.81799845  0.60742821     0.35900
C759        C  0.42800386  0.74323831  0.63153911     0.36600
C760        C  0.31770411  0.80136736  0.63575827     0.39900
N761        N  0.41050291  0.73093110  0.48000071    -0.38200
N762        N  0.36258008  0.72193148  0.55617955    -0.39800
N763        N  0.49760073  0.83155075  0.56040028    -0.37500
N764        N  0.43976037  0.83367169  0.62830628    -0.39900
N765        N  0.34794330  0.82547555  0.56409633    -0.39700
N766        N  0.29521432  0.81274959  0.63627174    -0.37300
N767        N  0.40184507  0.72410236  0.70548353    -0.38400
N768        N  0.44995535  0.73086973  0.63020915    -0.40000
C769        C  0.38238935  0.63639445  0.71027124    -0.05000
C770        C  0.39931420  0.63009916  0.73684515     0.09200
C771        C  0.39564245  0.64737439  0.76371654    -0.02400
C772        C  0.37514849  0.67067404  0.76413268    -0.00600
C773        C  0.35818849  0.67726014  0.73740856    -0.04200
C774        C  0.36250211  0.66020746  0.71025066     0.02800
C775        C  0.42195405  0.60608092  0.73612747     0.09600
C776        C  0.41354497  0.64150268  0.79082184     0.35500
C777        C  0.34858390  0.66865175  0.68132780     0.38900
C778        C  0.44797769  0.61021255  0.71995427    -0.04600
C779        C  0.46926164  0.58771451  0.71917813     0.02500
C780        C  0.46492818  0.56094732  0.73494747    -0.04200
C781        C  0.43898729  0.55692197  0.75134057    -0.00400
C782        C  0.41755420  0.57931180  0.75176052    -0.03000
C783        C  0.45288300  0.63777073  0.70417406     0.36300
C784        C  0.43378127  0.52923804  0.76674615     0.39900
C785        C  0.49593857  0.59242185  0.70262940     0.39000
C786        C  0.39067168  0.57464154  0.76786981     0.35900
C787        C  0.38590662  0.61861798  0.68261305     0.36600
C788        C  0.37205736  0.68809686  0.79209397     0.39900
N789        N  0.51720316  0.59612291  0.68940227    -0.38200
N790        N  0.45667763  0.65972634  0.69149897    -0.39800
N791        N  0.42969205  0.50710492  0.77896237    -0.37500
N792        N  0.36922415  0.57095828  0.78075375    -0.39900
N793        N  0.42786031  0.63668810  0.81237794    -0.39700
N794        N  0.36989727  0.70211252  0.81435616    -0.37300
N795        N  0.33793277  0.67556211  0.65808876    -0.38400
N796        N  0.38876960  0.60447244  0.66054191    -0.40000
C797        C  0.18385882  0.84817366  0.71089577    -0.05000
C798        C  0.15507751  0.84657572  0.72145622     0.09200
C799        C  0.14620416  0.82117696  0.73723540    -0.02400
C800        C  0.16546504  0.79716729  0.74131738    -0.00600
C801        C  0.19431104  0.79868345  0.73080816    -0.04200
C802        C  0.20350948  0.82447906  0.71591152     0.02800
C803        C  0.13375298  0.87133011  0.71577232     0.09600
C804        C  0.11712572  0.81982587  0.74938112     0.35500
C805        C  0.23281834  0.82612364  0.70459021     0.38900
C806        C  0.11268130  0.86904575  0.69196309    -0.04600
C807        C  0.09112507  0.89112062  0.68814938     0.02500
C808        C  0.09070219  0.91612726  0.70779708    -0.04200
C809        C  0.11218069  0.91852074  0.73137122    -0.00400
C810        C  0.13352600  0.89628037  0.73526021    -0.03000
C811        C  0.11329333  0.84385380  0.67130429     0.36300
C812        C  0.11284493  0.94421175  0.75135766     0.39900
C813        C  0.06860313  0.88729757  0.66487304     0.39000
C814        C  0.15539083  0.89903508  0.75940010     0.35900
C815        C  0.19300288  0.87399324  0.69427593     0.36600
C816        C  0.15540086  0.77070141  0.75619436     0.39900
N817        N  0.05054656  0.88412925  0.64641915    -0.38200
N818        N  0.11393538  0.82377580  0.65479498    -0.39800
N819        N  0.11331703  0.96469648  0.76731377    -0.37500
N820        N  0.17295092  0.90127280  0.77854025    -0.39900
N821        N  0.09396535  0.81886180  0.75916731    -0.39700
N822        N  0.14722442  0.74951027  0.76776521    -0.37300
N823        N  0.25623141  0.82740084  0.69556141    -0.38400
N824        N  0.20020882  0.89462084  0.68095335    -0.40000
C825        C  0.16344266  0.72556004  0.85365238    -0.05000
C826        C  0.14991722  0.69796927  0.85503717     0.09200
C827        C  0.15967980  0.67443445  0.83653231    -0.02400
C828        C  0.18243728  0.67875735  0.81584846    -0.00600
C829        C  0.19436862  0.70705394  0.81251460    -0.04200
C830        C  0.18488074  0.73046633  0.83164115     0.02800
C831        C  0.12351745  0.69482598  0.87379959     0.09600
C832        C  0.14537266  0.64622050  0.83777596     0.35500
C833        C  0.19491031  0.76024816  0.82674780     0.38900
C834        C  0.09763157  0.70863758  0.86380638    -0.04600
C835        C  0.07352482  0.70920442  0.88315173     0.02500
C836        C  0.07482213  0.69466944  0.91192880    -0.04200
C837        C  0.09990926  0.67850749  0.92059613    -0.00400
C838        C  0.12456187  0.67936160  0.90192393    -0.03000
C839        C  0.09598626  0.72269976  0.83376151     0.36300
C840        C  0.10098457  0.66222251  0.94937544     0.39900
C841        C  0.04739171  0.72468158  0.87326060     0.39000
C842        C  0.15131277  0.66532973  0.91212893     0.35900
C843        C  0.15427930  0.74927877  0.87399449     0.36600
C844        C  0.19316174  0.65420252  0.79762454     0.39900
N845        N  0.02662908  0.73707508  0.86531946    -0.38200
N846        N  0.09452748  0.73389795  0.80982400    -0.39800
N847        N  0.10184824  0.64923594  0.97231979    -0.37500
N848        N  0.17267738  0.65419193  0.92027163    -0.39900
N849        N  0.13383443  0.62378656  0.83877603    -0.39700
N850        N  0.20170686  0.63458989  0.78312909    -0.37300
N851        N  0.20262996  0.78403506  0.82266421    -0.38400
N852        N  0.14696190  0.76814548  0.89023490    -0.40000
C853        C  0.94633933  0.68870924  0.84472775    -0.05000
C854        C  0.91836681  0.70122803  0.84666349     0.09200
C855        C  0.90757992  0.71024431  0.87559848    -0.02400
C856        C  0.92516215  0.70784064  0.90231317    -0.00600
C857        C  0.95360332  0.69656250  0.90014223    -0.04200
C858        C  0.96378125  0.68596019  0.87152949     0.02800
C859        C  0.90007612  0.70470129  0.81820782     0.09600
C860        C  0.87854627  0.72242867  0.87772289     0.35500
C861        C  0.99233668  0.67263176  0.86956856     0.38900
C862        C  0.88441498  0.68064118  0.80647500    -0.04600
C863        C  0.86582665  0.68421055  0.78064236     0.02500
C864        C  0.86269974  0.71217173  0.76632235    -0.04200
C865        C  0.88064186  0.73549210  0.77660404    -0.00400
C866        C  0.89846779  0.73200933  0.80303484    -0.03000
C867        C  0.88675550  0.65236308  0.82177684     0.36300
C868        C  0.88199219  0.76267752  0.75927038     0.39900
C869        C  0.84974090  0.65896513  0.76951648     0.39000
C870        C  0.91466628  0.75677000  0.81516824     0.35900
C871        C  0.95741208  0.67948962  0.81496517     0.36600
C872        C  0.91372886  0.71619250  0.93218472     0.39900
N873        N  0.83718183  0.63866610  0.76060637    -0.38200
N874        N  0.88866111  0.62985696  0.83403945    -0.39800
N875        N  0.88359406  0.78418084  0.74522305    -0.37500
N876        N  0.92732848  0.77658229  0.82508166    -0.39900
N877        N  0.85542252  0.73225350  0.87936215    -0.39700
N878        N  0.90427185  0.72244910  0.95598496    -0.37300
N879        N  0.01499904  0.66173045  0.86795085    -0.38400
N880        N  0.96620361  0.67226211  0.79115370    -0.40000
C881        C  0.77406573  0.85238049  0.80348342    -0.05000
C882        C  0.74524549  0.85794907  0.81244760     0.09200
C883        C  0.72264077  0.84172409  0.79846363    -0.02400
C884        C  0.72862460  0.82153407  0.77432226    -0.00600
C885        C  0.75737429  0.81703682  0.76425568    -0.04200
C886        C  0.78014869  0.83183364  0.77986331     0.02800
C887        C  0.73897107  0.88173648  0.83579760     0.09600
C888        C  0.69319947  0.84589449  0.80894359     0.35500
C889        C  0.80996439  0.82715793  0.77084960     0.38900
C890        C  0.72612047  0.90860996  0.82628820    -0.04600
C891        C  0.72260296  0.93195324  0.84761762     0.02500
C892        C  0.73324096  0.92918973  0.87825430    -0.04200
C893        C  0.74607930  0.90233608  0.88777044    -0.00400
C894        C  0.74797091  0.87840974  0.86693823    -0.03000
C895        C  0.71724100  0.91255781  0.79428399     0.36300
C896        C  0.75731774  0.89924040  0.91905641     0.39900
C897        C  0.70906178  0.95927743  0.83763317     0.39000
C898        C  0.75917742  0.85025356  0.87749719     0.35900
C899        C  0.79757306  0.86848796  0.81803921     0.36600
C900        C  0.70522977  0.80490760  0.76032189     0.39900
N901        N  0.69823031  0.98106026  0.82968813    -0.38200
N902        N  0.71012822  0.91568268  0.76875836    -0.39800
N903        N  0.76650409  0.89683299  0.94393353    -0.37500
N904        N  0.76800263  0.82772464  0.88586779    -0.39900
N905        N  0.66971710  0.84926825  0.81733629    -0.39700
N906        N  0.68658722  0.79152838  0.74925636    -0.37300
N907        N  0.83385047  0.82364339  0.76394804    -0.38400
N908        N  0.81631682  0.88117653  0.82980858    -0.40000
C909        C  0.72597752  0.10408227  0.84603246    -0.05000
C910        C  0.74069730  0.09578572  0.81883047     0.09200
C911        C  0.75183542  0.06680164  0.81613607    -0.02400
C912        C  0.74893600  0.04664097  0.84061007    -0.00600
C913        C  0.73375672  0.05477659  0.86751017    -0.04200
C914        C  0.72216554  0.08354099  0.87007164     0.02800
C915        C  0.74616401  0.11789382  0.79376655     0.09600
C916        C  0.76668584  0.05781351  0.78823190     0.35500
C917        C  0.70761351  0.09247177  0.89816672     0.38900
C918        C  0.77456913  0.12786979  0.78884082    -0.04600
C919        C  0.78044707  0.14685387  0.76405706     0.02500
C920        C  0.75776988  0.15695581  0.74427487    -0.04200
C921        C  0.72910889  0.14809393  0.75011107    -0.00400
C922        C  0.72338108  0.12841362  0.77452527    -0.03000
C923        C  0.79795992  0.11838648  0.80929044     0.36300
C924        C  0.70535732  0.16003579  0.73174029     0.39900
C925        C  0.81023212  0.15499891  0.75842307     0.39000
C926        C  0.69401246  0.11888650  0.77978584     0.35900
C927        C  0.71558201  0.13406369  0.84970756     0.36600
C928        C  0.76178808  0.01750198  0.83815565     0.39900
N929        N  0.83400324  0.16142488  0.75408086    -0.38200
N930        N  0.81664814  0.11073804  0.82548145    -0.39800
N931        N  0.68637012  0.16978536  0.71728352    -0.37500
N932        N  0.67054682  0.11145599  0.78417008    -0.39900
N933        N  0.77869866  0.05074023  0.76605229    -0.39700
N934        N  0.77224108  0.99434737  0.83628720    -0.37300
N935        N  0.69611609  0.09960808  0.92064005    -0.38400
N936        N  0.70727298  0.15799373  0.85255970    -0.40000
C937        C  0.89811420  0.28758126  0.77904244    -0.05000
C938        C  0.89615329  0.27429560  0.80827827     0.09200
C939        C  0.87226053  0.25663975  0.81534680    -0.02400
C940        C  0.85014560  0.25241136  0.79322977    -0.00600
C941        C  0.85183893  0.26605738  0.76399461    -0.04200
C942        C  0.87603311  0.28338778  0.75683690     0.02800
C943        C  0.91972011  0.27800984  0.83156431     0.09600
C944        C  0.87058847  0.24276285  0.84542316     0.35500
C945        C  0.87889280  0.29573420  0.72616788     0.38900
C946        C  0.91684149  0.29910957  0.85528688    -0.04600
C947        C  0.93762950  0.30042815  0.87926923     0.02500
C948        C  0.96170281  0.28098714  0.87913561    -0.04200
C949        C  0.96528263  0.26094027  0.85435830    -0.00400
C950        C  0.94408020  0.25919144  0.83085867    -0.03000
C951        C  0.89204976  0.31892537  0.85533408     0.36300
C952        C  0.99093983  0.24235745  0.85276013     0.39900
C953        C  0.93329738  0.32066486  0.90487018     0.39000
C954        C  0.94683312  0.23751712  0.80632061     0.35900
C955        C  0.92302316  0.30531159  0.77180976     0.36600
C956        C  0.82549300  0.23436873  0.80083596     0.39900
N957        N  0.92982028  0.33672918  0.92534106    -0.38200
N958        N  0.87228331  0.33473867  0.85531217    -0.39800
N959        N  0.01144087  0.22761419  0.85141078    -0.37500
N960        N  0.94884540  0.22022257  0.78674497    -0.39900
N961        N  0.86934297  0.23177842  0.86944223    -0.39700
N962        N  0.80593712  0.21987059  0.80690745    -0.37300
N963        N  0.88116790  0.30537899  0.70161802    -0.38400
N964        N  0.94293876  0.31940536  0.76605001    -0.40000
C965        C  0.14437999  0.23939642  0.80141010    -0.05000
C966        C  0.15105920  0.25870323  0.82598590     0.09200
C967        C  0.17836533  0.27238745  0.82714286    -0.02400
C968        C  0.19861994  0.26737935  0.80334080    -0.00600
C969        C  0.19165480  0.24852898  0.77833354    -0.04200
C970        C  0.16460020  0.23413104  0.77785851     0.02800
C971        C  0.12906957  0.26426516  0.85062422     0.09600
C972        C  0.18549523  0.29163867  0.85284697     0.35500
C973        C  0.15775839  0.21310200  0.75356483     0.38900
C974        C  0.12733943  0.24513237  0.87603697    -0.04600
C975        C  0.10493527  0.24853666  0.89774048     0.02500
C976        C  0.08389476  0.27125603  0.89427213    -0.04200
C977        C  0.08612994  0.29078989  0.86893003    -0.00400
C978        C  0.10850618  0.28715558  0.84720696    -0.03000
C979        C  0.14837703  0.22142771  0.87936328     0.36300
C980        C  0.06466202  0.31386219  0.86413749     0.39900
C981        C  0.10398538  0.22863720  0.92375384     0.39000
C982        C  0.10982676  0.30633592  0.82057115     0.35900
C983        C  0.11654767  0.22488825  0.80043847     0.36600
C984        C  0.22620299  0.28227526  0.80412255     0.39900
N985        N  0.10357103  0.21244618  0.94427632    -0.38200
N986        N  0.16515147  0.20250633  0.88186255    -0.39800
N987        N  0.04757399  0.33229897  0.86030717    -0.37500
N988        N  0.11083661  0.32150535  0.79921646    -0.39900
N989        N  0.19113981  0.30693571  0.87345189    -0.39700
N990        N  0.24820772  0.29420336  0.80471703    -0.37300
N991        N  0.15220283  0.19627645  0.73430233    -0.38400
N992        N  0.09433641  0.21336338  0.79974123    -0.40000
C993        C  0.29160150  0.07570897  0.85818946    -0.05000
C994        C  0.31576984  0.09418080  0.85967378     0.09200
C995        C  0.33820257  0.08873174  0.88111136    -0.02400
C996        C  0.33599714  0.06539252  0.90219182    -0.00600
C997        C  0.31050609  0.04802924  0.90269896    -0.04200
C998        C  0.28881130  0.05277046  0.87957118     0.02800
C999        C  0.31686764  0.12001259  0.83896009     0.09600
C1000       C  0.36322717  0.10777849  0.88192983     0.35500
C1001       C  0.26338019  0.03436730  0.87730825     0.38900
C1002       C  0.30288026  0.14636396  0.84769683    -0.04600
C1003       C  0.30051599  0.16962830  0.82657951     0.02500
C1004       C  0.31143115  0.16620445  0.79640406    -0.04200
C1005       C  0.32657403  0.14026803  0.78816577    -0.00400
C1006       C  0.32955049  0.11728765  0.80964686    -0.03000
C1007       C  0.29010055  0.14909355  0.87806731     0.36300
C1008       C  0.33750758  0.13642833  0.75710781     0.39900
C1009       C  0.28697144  0.19715750  0.83593529     0.39000
C1010       C  0.34474742  0.09038927  0.80137707     0.35900
C1011       C  0.26924743  0.08083310  0.83484858     0.36600
C1012       C  0.35996005  0.06012292  0.92351365     0.39900
N1013       N  0.27631426  0.21917556  0.84334211    -0.38200
N1014       N  0.27978485  0.15120573  0.90222546    -0.39800
N1015       N  0.34612046  0.13326970  0.73229634    -0.37500
N1016       N  0.35693116  0.06891014  0.79497526    -0.39900
N1017       N  0.38311578  0.12303591  0.88262682    -0.39700
N1018       N  0.37925846  0.05598539  0.94029252    -0.37300
N1019       N  0.24282669  0.02011768  0.87530289    -0.38400
N1020       N  0.25153180  0.08498234  0.81619565    -0.40000
C1021       C  0.29419091  0.88828245  0.88118673    -0.05000
C1022       C  0.30740387  0.86418656  0.89634928     0.09200
C1023       C  0.31859834  0.86728457  0.92654035    -0.02400
C1024       C  0.31687221  0.89473307  0.94154317    -0.00600
C1025       C  0.30464909  0.91923662  0.92587283    -0.04200
C1026       C  0.29334995  0.91591641  0.89566268     0.02800
C1027       C  0.31023230  0.83597107  0.87941518     0.09600
C1028       C  0.33157124  0.84215738  0.94212093     0.35500
C1029       C  0.28171588  0.94104749  0.87898284     0.38900
C1030       C  0.33187563  0.83299844  0.85697216    -0.04600
C1031       C  0.32983588  0.81064850  0.83458765     0.02500
C1032       C  0.30643472  0.79084768  0.83530779    -0.04200
C1033       C  0.28731540  0.79139818  0.86049621    -0.00400
C1034       C  0.28881196  0.81439908  0.88223014    -0.03000
C1035       C  0.35510240  0.85420836  0.85579586     0.36300
C1036       C  0.26641031  0.76816638  0.86419507     0.39900
C1037       C  0.35052915  0.80965541  0.80961756     0.39000
C1038       C  0.26745117  0.81687096  0.90640290     0.35900
C1039       C  0.28121280  0.88446455  0.85070474     0.36600
C1040       C  0.32651813  0.89733882  0.97349266     0.39900
N1041       N  0.36705140  0.80894932  0.78973269    -0.38200
N1042       N  0.37359316  0.87114676  0.85495451    -0.39800
N1043       N  0.25013005  0.74932702  0.86759159    -0.37500
N1044       N  0.25041418  0.81894132  0.92569009    -0.39900
N1045       N  0.34183746  0.82205463  0.95453224    -0.39700
N1046       N  0.33403411  0.89924454  0.99903574    -0.37300
N1047       N  0.27258722  0.96096195  0.86534942    -0.38400
N1048       N  0.27069815  0.88127484  0.82652318    -0.40000
C1049       C  0.38167282  0.79897563  0.39592435    -0.05000
C1050       C  0.38265907  0.78632215  0.36617485     0.09200
C1051       C  0.40915440  0.77602232  0.35418144    -0.02400
C1052       C  0.43449439  0.77734262  0.37237796    -0.00600
C1053       C  0.43343434  0.78937236  0.40245530    -0.04200
C1054       C  0.40709533  0.80055686  0.41409525     0.02800
C1055       C  0.35575294  0.78256219  0.34747331     0.09600
C1056       C  0.41012887  0.76355896  0.32325236     0.35500
C1057       C  0.40582723  0.81208143  0.44539594     0.38900
C1058       C  0.34597662  0.80529135  0.32794954    -0.04600
C1059       C  0.32419012  0.79974448  0.30573432     0.02500
C1060       C  0.31262004  0.77108855  0.30246268    -0.04200
C1061       C  0.32057199  0.74921648  0.32427119    -0.00400
C1062       C  0.34211397  0.75502454  0.34670228    -0.03000
C1063       C  0.35948044  0.83392552  0.32972255     0.36300
C1064       C  0.30817186  0.72011936  0.32276167     0.39900
C1065       C  0.31412755  0.82353185  0.28596061     0.39000
C1066       C  0.35153058  0.73214546  0.36796540     0.35900
C1067       C  0.35436871  0.80955842  0.40805464     0.36600
C1068       C  0.46158927  0.76609736  0.36022139     0.39900
N1069       N  0.30622519  0.84257691  0.27023757    -0.38200
N1070       N  0.37036692  0.85670013  0.33119152    -0.39800
N1071       N  0.29840113  0.69681885  0.32208668    -0.37500
N1072       N  0.35914776  0.71393535  0.38488576    -0.39900
N1073       N  0.41077135  0.75361376  0.29859917    -0.39700
N1074       N  0.48312600  0.75705110  0.35045182    -0.37300
N1075       N  0.40486088  0.82114485  0.47040586    -0.38400
N1076       N  0.33257342  0.81800746  0.41772993    -0.40000
C1077       C  0.22998755  0.61760182  0.32495126    -0.05000
C1078       C  0.20147588  0.61118402  0.33367026     0.09200
C1079       C  0.17798994  0.62564845  0.31920463    -0.02400
C1080       C  0.18291035  0.64887568  0.29866511    -0.00600
C1081       C  0.21173632  0.65722761  0.29165439    -0.04200
C1082       C  0.23502826  0.63963074  0.30291514     0.02800
C1083       C  0.19586370  0.59033790  0.35927832     0.09600
C1084       C  0.14860640  0.61713665  0.32639019     0.35500
C1085       C  0.26391898  0.64285459  0.29072999     0.38900
C1086       C  0.18640812  0.60141203  0.38803275    -0.04600
C1087       C  0.17981700  0.58195045  0.41200915     0.02500
C1088       C  0.18439389  0.55153362  0.40790668    -0.04200
C1089       C  0.19324468  0.54035119  0.37903512    -0.00400
C1090       C  0.19868252  0.55974614  0.35458184    -0.03000
C1091       C  0.18445216  0.63291230  0.39323974     0.36300
C1092       C  0.19648261  0.50887198  0.37448516     0.39900
C1093       C  0.16897775  0.59327651  0.44111642     0.39000
C1094       C  0.20760950  0.54832929  0.32479699     0.35900
C1095       C  0.25417653  0.60219789  0.33943389     0.36600
C1096       C  0.15791109  0.66412630  0.28555323     0.39900
N1097       N  0.16007362  0.60236528  0.46418551    -0.38200
N1098       N  0.18308822  0.65803878  0.39737166    -0.39800
N1099       N  0.19896645  0.48377387  0.37073868    -0.37500
N1100       N  0.21490914  0.53923383  0.30108686    -0.39900
N1101       N  0.12524478  0.61033596  0.33222489    -0.39700
N1102       N  0.13784278  0.67602325  0.27509155    -0.37300
N1103       N  0.28689846  0.64480611  0.28064627    -0.38400
N1104       N  0.27344612  0.58996301  0.35109571    -0.40000
C1105       C  0.33514651  0.63310757  0.19589887    -0.05000
C1106       C  0.36489194  0.63965403  0.19489199     0.09200
C1107       C  0.37431901  0.66856868  0.20065232    -0.02400
C1108       C  0.35420524  0.69061763  0.20859923    -0.00600
C1109       C  0.32418892  0.68448081  0.20825367    -0.04200
C1110       C  0.31475426  0.65560496  0.20162288     0.02800
C1111       C  0.38655825  0.61570243  0.18969445     0.09600
C1112       C  0.40485969  0.67550234  0.19885767     0.35500
C1113       C  0.28411304  0.64898173  0.20012388     0.38900
C1114       C  0.38932374  0.60263055  0.16032947    -0.04600
C1115       C  0.40942596  0.57956885  0.15570638     0.02500
C1116       C  0.42800599  0.57012876  0.18035440    -0.04200
C1117       C  0.42499736  0.58376308  0.20990660    -0.00400
C1118       C  0.40411976  0.60601553  0.21447318    -0.03000
C1119       C  0.37130884  0.61298309  0.13478703     0.36300
C1120       C  0.44316890  0.57543346  0.23611961     0.39900
C1121       C  0.40988920  0.56529632  0.12562521     0.39000
C1122       C  0.40058567  0.61908391  0.24493959     0.35900
C1123       C  0.32560242  0.60304944  0.19163475     0.36600
C1124       C  0.36470759  0.71906587  0.21892430     0.39900
N1125       N  0.40999149  0.55400046  0.10159506    -0.38200
N1126       N  0.35687547  0.62116424  0.11447427    -0.39800
N1127       N  0.45741734  0.56887551  0.25722111    -0.37500
N1128       N  0.39782563  0.62966309  0.26911409    -0.39900
N1129       N  0.42920309  0.68100206  0.19746496    -0.39700
N1130       N  0.37310618  0.74160582  0.22748539    -0.37300
N1131       N  0.25967328  0.64372494  0.19892987    -0.38400
N1132       N  0.31805952  0.57904596  0.18831460    -0.40000
C1133       C  0.28493286  0.85563377  0.12240553    -0.05000
C1134       C  0.26727647  0.88096553  0.12017920     0.09200
C1135       C  0.24566941  0.88656544  0.14221920    -0.02400
C1136       C  0.24183103  0.86686036  0.16674699    -0.00600
C1137       C  0.25989408  0.84177658  0.16934910    -0.04200
C1138       C  0.28137949  0.83611686  0.14705440     0.02800
C1139       C  0.27165788  0.90186274  0.09452227     0.09600
C1140       C  0.22728233  0.91246695  0.13935921     0.35500
C1141       C  0.29896447  0.80949912  0.14855408     0.38900
C1142       C  0.26114640  0.89508095  0.06464831    -0.04600
C1143       C  0.26623526  0.91437666  0.04011289     0.02500
C1144       C  0.28177158  0.94054017  0.04554280    -0.04200
C1145       C  0.29236596  0.94723828  0.07546592    -0.00400
C1146       C  0.28716241  0.92794101  0.09998009    -0.03000
C1147       C  0.24537668  0.86807021  0.05918300     0.36300
C1148       C  0.30813912  0.97420635  0.08119167     0.39900
C1149       C  0.25652902  0.90664402  0.00909222     0.39000
C1150       C  0.29774817  0.93482969  0.13086126     0.35900
C1151       C  0.30630888  0.84934867  0.09889067     0.36600
C1152       C  0.21958027  0.87255903  0.18944116     0.39900
N1153       N  0.24888169  0.90040983  0.98436472    -0.38200
N1154       N  0.23293102  0.84646037  0.05482918    -0.39800
N1155       N  0.32074700  0.99569365  0.08570082    -0.37500
N1156       N  0.30601888  0.94035687  0.15554390    -0.39900
N1157       N  0.21272883  0.93319859  0.13697201    -0.39700
N1158       N  0.20179916  0.87702707  0.20751873    -0.37300
N1159       N  0.31296158  0.78828216  0.14964613    -0.38400
N1160       N  0.32309983  0.84417056  0.07995175    -0.40000
C1161       C  0.11546327  0.72468630  0.06026124    -0.05000
C1162       C  0.10528479  0.72508425  0.09083107     0.09200
C1163       C  0.07562646  0.72109216  0.09657728    -0.02400
C1164       C  0.05620747  0.71628810  0.07179734    -0.00600
C1165       C  0.06643570  0.71526891  0.04121463    -0.04200
C1166       C  0.09599317  0.72017348  0.03542497     0.02800
C1167       C  0.12562227  0.73046060  0.11716081     0.09600
C1168       C  0.06507604  0.72259312  0.12801323     0.35500
C1169       C  0.10626300  0.72166080  0.00394984     0.38900
C1170       C  0.13320980  0.75945919  0.12526250    -0.04600
C1171       C  0.15075068  0.76470011  0.15150177     0.02500
C1172       C  0.16064131  0.74086596  0.16981958    -0.04200
C1173       C  0.15365979  0.71176395  0.16111422    -0.00400
C1174       C  0.13623856  0.70661311  0.13476859    -0.03000
C1175       C  0.12234046  0.78392484  0.10695672     0.36300
C1176       C  0.16470449  0.68706045  0.17897200     0.39900
C1177       C  0.15743867  0.79472535  0.16038908     0.39000
C1178       C  0.12897308  0.67679004  0.12579247     0.35900
C1179       C  0.14593275  0.72924396  0.05446663     0.36600
C1180       C  0.02550282  0.71426285  0.07773300     0.39900
N1181       N  0.16279252  0.81864194  0.16749858    -0.38200
N1182       N  0.11368906  0.80342109  0.09231955    -0.39800
N1183       N  0.17349217  0.66733197  0.19317668    -0.37500
N1184       N  0.12312288  0.65304221  0.11853542    -0.39900
N1185       N  0.05674300  0.72383933  0.15310561    -0.39700
N1186       N  0.00106006  0.71324051  0.08297654    -0.37300
N1187       N  0.11474342  0.72344031  0.97898461    -0.38400
N1188       N  0.17024847  0.73294094  0.04993790    -0.40000
C1189       C  0.76843935  0.62892314  0.28670873    -0.05000
C1190       C  0.75157508  0.63311051  0.31322741     0.09200
C1191       C  0.73532299  0.65927903  0.31643269    -0.02400
C1192       C  0.73471123  0.68058245  0.29256103    -0.00600
C1193       C  0.74994357  0.67564246  0.26447536    -0.04200
C1194       C  0.76801826  0.64993755  0.26269397     0.02800
C1195       C  0.75161395  0.60986136  0.33792925     0.09600
C1196       C  0.71894034  0.66409966  0.34441326     0.35500
C1197       C  0.78656088  0.64439652  0.23640413     0.38900
C1198       C  0.77242866  0.61047078  0.36201381    -0.04600
C1199       C  0.77463962  0.58701638  0.38326558     0.02500
C1200       C  0.75631412  0.56230235  0.38040108    -0.04200
C1201       C  0.73427789  0.56259555  0.35728559    -0.00400
C1202       C  0.73208985  0.58620803  0.33610290    -0.03000
C1203       C  0.79176421  0.63528215  0.36474805     0.36300
C1204       C  0.71424101  0.53835120  0.35461269     0.39900
C1205       C  0.79509496  0.58897990  0.40889447     0.39000
C1206       C  0.70996272  0.58608324  0.31203470     0.35900
C1207       C  0.78611795  0.60245711  0.28404000     0.36600
C1208       C  0.71871922  0.70772411  0.29772240     0.39900
N1209       N  0.81123142  0.59055458  0.42949106    -0.38200
N1210       N  0.80714423  0.65512377  0.36693559    -0.39800
N1211       N  0.69815427  0.51908782  0.35243287    -0.37500
N1212       N  0.69230510  0.58612834  0.29283300    -0.39900
N1213       N  0.70588628  0.66789967  0.36675686    -0.39700
N1214       N  0.70604143  0.72936536  0.30221585    -0.37300
N1215       N  0.80152026  0.63974282  0.21564301    -0.38400
N1216       N  0.80014299  0.58133520  0.28201551    -0.40000
C1217       C  0.60378864  0.77248469  0.28449742    -0.05000
C1218       C  0.60955315  0.79143747  0.30964423     0.09200
C1219       C  0.63407873  0.80956246  0.30973575    -0.02400
C1220       C  0.65416530  0.80699846  0.28582002    -0.00600
C1221       C  0.64948645  0.78639686  0.26180850    -0.04200
C1222       C  0.62374645  0.77008900  0.26041025     0.02800
C1223       C  0.59086933  0.79080061  0.33711344     0.09600
C1224       C  0.63907381  0.83002293  0.33504399     0.35500
C1225       C  0.61769207  0.75121860  0.23403755     0.38900
C1226       C  0.60010482  0.77494986  0.36346887    -0.04600
C1227       C  0.58225901  0.77373433  0.38942446     0.02500
C1228       C  0.55516556  0.78819424  0.38882136    -0.04200
C1229       C  0.54624545  0.80462941  0.36272016    -0.00400
C1230       C  0.56411050  0.80582989  0.33678489    -0.03000
C1231       C  0.62795079  0.75989311  0.36376495     0.36300
C1232       C  0.51847090  0.81982303  0.36228262     0.39900
C1233       C  0.59217138  0.75856298  0.41711100     0.39000
C1234       C  0.55498123  0.82231292  0.30967408     0.35900
C1235       C  0.57773259  0.75495198  0.28389784     0.36600
C1236       C  0.68037026  0.82435169  0.28690049     0.39900
N1237       N  0.60011465  0.74665569  0.43927444    -0.38200
N1238       N  0.65020615  0.74800648  0.36395028    -0.39800
N1239       N  0.49635045  0.83197017  0.36194213    -0.37500
N1240       N  0.54768595  0.83534140  0.28797928    -0.39900
N1241       N  0.64304911  0.84627806  0.35527218    -0.39700
N1242       N  0.70124573  0.83819449  0.28774996    -0.37300
N1243       N  0.61268610  0.73641250  0.21285475    -0.38400
N1244       N  0.55685428  0.74111290  0.28342757    -0.40000
C1245       C  0.62249094  0.64442918  0.19890965    -0.05000
C1246       C  0.61828181  0.62893983  0.17090788     0.09200
C1247       C  0.63655176  0.63431666  0.14570820    -0.02400
C1248       C  0.65927312  0.65469037  0.14864129    -0.00600
C1249       C  0.66381014  0.66995779  0.17683844    -0.04200
C1250       C  0.64536813  0.66456014  0.20204487     0.02800
C1251       C  0.59526277  0.60606423  0.16845810     0.09600
C1252       C  0.63197265  0.61873536  0.11676358     0.35500
C1253       C  0.65084133  0.67839216  0.23182997     0.38900
C1254       C  0.56880100  0.61233073  0.15313454    -0.04600
C1255       C  0.54685087  0.59097251  0.15167680     0.02500
C1256       C  0.55117924  0.56326121  0.16579122    -0.04200
C1257       C  0.57783476  0.55694717  0.18087582    -0.00400
C1258       C  0.59981827  0.57822011  0.18204752    -0.03000
C1259       C  0.56399958  0.64104678  0.13946211     0.36300
C1260       C  0.58286956  0.52835427  0.19482737     0.39900
C1261       C  0.51932628  0.59806035  0.13689737     0.39000
C1262       C  0.62720725  0.57153742  0.19733156     0.35900
C1263       C  0.60328544  0.63944834  0.22460304     0.36600
C1264       C  0.67784995  0.66002009  0.12250190     0.39900
N1265       N  0.49733671  0.60370272  0.12517249    -0.38200
N1266       N  0.56026428  0.66397985  0.12856239    -0.39800
N1267       N  0.58683217  0.50556547  0.20598608    -0.37500
N1268       N  0.64905477  0.56629651  0.20955235    -0.39900
N1269       N  0.62817120  0.60640713  0.09363504    -0.39700
N1270       N  0.69275648  0.66417941  0.10170220    -0.37300
N1271       N  0.65520405  0.68927947  0.25564396    -0.38400
N1272       N  0.58792142  0.63547124  0.24505421    -0.40000
C1273       C  0.87482375  0.74430582  0.11860336    -0.05000
C1274       C  0.87263904  0.72590466  0.09240576     0.09200
C1275       C  0.84693438  0.71060133  0.08587880    -0.02400
C1276       C  0.82341397  0.71335354  0.10587832    -0.00600
C1277       C  0.82582618  0.73109568  0.13262357    -0.04200
C1278       C  0.85140573  0.74684695  0.13884578     0.02800
C1279       C  0.89752967  0.72255973  0.07149060     0.09600
C1280       C  0.84469186  0.69231114  0.05838570     0.35500
C1281       C  0.85387781  0.76512497  0.16631910     0.38900
C1282       C  0.91563585  0.69767964  0.07396925    -0.04600
C1283       C  0.93862464  0.69376027  0.05336778     0.02500
C1284       C  0.94428155  0.71553079  0.03075211    -0.04200
C1285       C  0.92629793  0.74108492  0.02927147    -0.00400
C1286       C  0.90257769  0.74403894  0.04904684    -0.03000
C1287       C  0.91048168  0.67611525  0.09790987     0.36300
C1288       C  0.93149201  0.76444508  0.00730768     0.39900
C1289       C  0.95664022  0.66756319  0.05644324     0.39000
C1290       C  0.88285709  0.76895140  0.04597823     0.35900
C1291       C  0.90116760  0.76057746  0.12459075     0.36600
C1292       C  0.79632303  0.69896913  0.09822658     0.39900
N1293       N  0.97086389  0.64661751  0.05910103    -0.38200
N1294       N  0.90631806  0.65902960  0.11705093    -0.39800
N1295       N  0.93560694  0.78325799  0.99002464    -0.37500
N1296       N  0.86701244  0.78867295  0.04343766    -0.39900
N1297       N  0.84300214  0.67771603  0.03647151    -0.39700
N1298       N  0.77465384  0.68770407  0.09203986    -0.37300
N1299       N  0.85595863  0.77970661  0.18820844    -0.38400
N1300       N  0.92214477  0.77366006  0.12918822    -0.40000
C1301       C  0.73280030  0.92856974  0.06337894    -0.05000
C1302       C  0.72146123  0.90008956  0.05912729     0.09200
C1303       C  0.70925759  0.89228756  0.03017831    -0.02400
C1304       C  0.70923092  0.91244585  0.00536577    -0.00600
C1305       C  0.72113922  0.94073478  0.00942470    -0.04200
C1306       C  0.73258875  0.94881806  0.03868467     0.02800
C1307       C  0.72361076  0.87787420  0.08475038     0.09600
C1308       C  0.69718136  0.86324226  0.02585134     0.35500
C1309       C  0.74377770  0.97821140  0.04351188     0.38900
C1310       C  0.69974114  0.87245756  0.10385342    -0.04600
C1311       C  0.70207385  0.85190051  0.12824475     0.02500
C1312       C  0.72862016  0.83697955  0.13431180    -0.04200
C1313       C  0.75240850  0.84218894  0.11465938    -0.00400
C1314       C  0.74977973  0.86236522  0.08999252    -0.03000
C1315       C  0.67288198  0.88852914  0.09868625     0.36300
C1316       C  0.78021702  0.82805239  0.12051303     0.39900
C1317       C  0.67684676  0.84570560  0.14665153     0.39000
C1318       C  0.77427222  0.86765441  0.07016582     0.35900
C1319       C  0.74485610  0.93694089  0.09321390     0.36600
C1320       C  0.69824798  0.90352118  0.97524847     0.39900
N1321       N  0.65668551  0.84067753  0.16125222    -0.38200
N1322       N  0.65149989  0.90145040  0.09456622    -0.39800
N1323       N  0.80251496  0.81696428  0.12497619    -0.37500
N1324       N  0.79376888  0.87197744  0.05434111    -0.39900
N1325       N  0.68745218  0.84007704  0.02256291    -0.39700
N1326       N  0.68965856  0.89630908  0.95117279    -0.37300
N1327       N  0.75260578  0.00169965  0.04727030    -0.38400
N1328       N  0.75450294  0.94357725  0.11702114    -0.40000
C1329       C  0.60763288  0.24256721  0.27632392    -0.05000
C1330       C  0.61099542  0.22127794  0.29974145     0.09200
C1331       C  0.63449451  0.20133170  0.29872907    -0.02400
C1332       C  0.65500553  0.20309225  0.27491793    -0.00600
C1333       C  0.65255390  0.22536371  0.25216833    -0.04200
C1334       C  0.62836892  0.24474290  0.25270540     0.02800
C1335       C  0.59044183  0.22046605  0.32627842     0.09600
C1336       C  0.63799284  0.17951285  0.32288869     0.35500
C1337       C  0.62437502  0.26658718  0.22866137     0.38900
C1338       C  0.56676564  0.20114467  0.32572070    -0.04600
C1339       C  0.54799826  0.19973888  0.35120816     0.02500
C1340       C  0.55276233  0.21776274  0.37755159    -0.04200
C1341       C  0.57679701  0.23688927  0.37810767    -0.00400
C1342       C  0.59544901  0.23824507  0.35255559    -0.03000
C1343       C  0.56183505  0.18263457  0.29882832     0.36300
C1344       C  0.58321470  0.25430838  0.40548744     0.39900
C1345       C  0.52345571  0.18011758  0.34990748     0.39000
C1346       C  0.62022635  0.25759330  0.35342641     0.35900
C1347       C  0.58287769  0.26239879  0.27676939     0.36600
C1348       C  0.67929481  0.18262969  0.27479038     0.39900
N1349       N  0.50393155  0.16438806  0.34891647    -0.38200
N1350       N  0.55798986  0.16785564  0.27735669    -0.39800
N1351       N  0.58840547  0.26813919  0.42734524    -0.37500
N1352       N  0.64004134  0.27295291  0.35402810    -0.39900
N1353       N  0.64074931  0.16222758  0.34227520    -0.39700
N1354       N  0.69857499  0.16620157  0.27465002    -0.37300
N1355       N  0.62096914  0.28403767  0.20954217    -0.38400
N1356       N  0.56307766  0.27816225  0.27712427    -0.40000
C1357       C  0.78334799  0.35777009  0.28373768    -0.05000
C1358       C  0.75951824  0.36852827  0.30059921     0.09200
C1359       C  0.73147670  0.35868817  0.29307278    -0.02400
C1360       C  0.72698237  0.33946915  0.26779262    -0.00600
C1361       C  0.75068916  0.32985249  0.24960954    -0.04200
C1362       C  0.77902076  0.33830630  0.25853956     0.02800
C1363       C  0.76354363  0.39104322  0.32572368     0.09600
C1364       C  0.70707693  0.36899481  0.31107993     0.35500
C1365       C  0.80384248  0.32627439  0.24244649     0.38900
C1366       C  0.76327920  0.42126638  0.31837393    -0.04600
C1367       C  0.76495275  0.44263690  0.34209916     0.02500
C1368       C  0.76607508  0.43395265  0.37337943    -0.04200
C1369       C  0.76733792  0.40373033  0.38070383    -0.00400
C1370       C  0.76610846  0.38233755  0.35692605    -0.03000
C1371       C  0.76085308  0.43032165  0.28633960     0.36300
C1372       C  0.77052485  0.39466447  0.41266684     0.39900
C1373       C  0.76595842  0.47358119  0.33430446     0.39000
C1374       C  0.76736303  0.35132335  0.36445502     0.35900
C1375       C  0.81231923  0.36698706  0.29223474     0.36600
C1376       C  0.69764093  0.33074910  0.25997926     0.39900
N1377       N  0.76715234  0.49822454  0.32797253    -0.38200
N1378       N  0.75884928  0.43747441  0.26075964    -0.39800
N1379       N  0.77331190  0.38733565  0.43811868    -0.37500
N1380       N  0.76841513  0.32654169  0.37034823    -0.39900
N1381       N  0.68769762  0.37723169  0.32553969    -0.39700
N1382       N  0.67421053  0.32383269  0.25389980    -0.37300
N1383       N  0.82361923  0.31646086  0.22972953    -0.38400
N1384       N  0.83543910  0.37435788  0.29903075    -0.40000
C1385       C  0.63859021  0.38440600  0.17479959    -0.05000
C1386       C  0.61358293  0.37541009  0.15846484     0.09200
C1387       C  0.61263975  0.34731970  0.14461075    -0.02400
C1388       C  0.63660287  0.32809625  0.14732875    -0.00600
C1389       C  0.66187110  0.33727170  0.16324593    -0.04200
C1390       C  0.66285040  0.36560803  0.17678161     0.02800
C1391       C  0.58834936  0.39589244  0.15589167     0.09600
C1392       C  0.58711761  0.33843026  0.12724702     0.35500
C1393       C  0.68858408  0.37537365  0.19329692     0.38900
C1394       C  0.58981659  0.42062083  0.13641814    -0.04600
C1395       C  0.56774804  0.44214720  0.13699951     0.02500
C1396       C  0.54386264  0.43864731  0.15667409    -0.04200
C1397       C  0.54151003  0.41289031  0.17458334    -0.00400
C1398       C  0.56391547  0.39173944  0.17451369    -0.03000
C1399       C  0.61461359  0.42431543  0.11659492     0.36300
C1400       C  0.51591064  0.40806726  0.19293915     0.39900
C1401       C  0.57055460  0.46861668  0.11871492     0.39000
C1402       C  0.56231740  0.36619198  0.19436985     0.35900
C1403       C  0.63921597  0.41302978  0.18978289     0.36600
C1404       C  0.63549474  0.29921078  0.13301292     0.39900
N1405       N  0.57287727  0.48974079  0.10417490    -0.38200
N1406       N  0.63449692  0.42719939  0.10093452    -0.39800
N1407       N  0.49540734  0.40427847  0.20743166    -0.37500
N1408       N  0.56106350  0.34579998  0.21018279    -0.39900
N1409       N  0.56672621  0.33140722  0.11340655    -0.39700
N1410       N  0.63457132  0.27613630  0.12168325    -0.37300
N1411       N  0.70909979  0.38337528  0.20629300    -0.38400
N1412       N  0.63965874  0.43586999  0.20166308    -0.40000
C1413       C  0.74120949  0.11045510  0.02075641    -0.05000
C1414       C  0.71967637  0.11093891  0.04355118     0.09200
C1415       C  0.69747119  0.08989067  0.04246747    -0.02400
C1416       C  0.69778046  0.06733167  0.01987771    -0.00600
C1417       C  0.72021027  0.06591092  0.99779046    -0.04200
C1418       C  0.74120349  0.08843182  0.99766115     0.02800
C1419       C  0.72206319  0.13188989  0.07033040     0.09600
C1420       C  0.67467430  0.09110801  0.06520263     0.35500
C1421       C  0.76249251  0.08950169  0.97332789     0.38900
C1422       C  0.71285539  0.16148402  0.06758455    -0.04600
C1423       C  0.71690655  0.18137049  0.09249605     0.02500
C1424       C  0.72960443  0.17155282  0.12051898    -0.04200
C1425       C  0.73840257  0.14174250  0.12330201    -0.00400
C1426       C  0.73476586  0.12211386  0.09829428    -0.03000
C1427       C  0.69892614  0.17128177  0.03921033     0.36300
C1428       C  0.75210193  0.13130084  0.15164142     0.39900
C1429       C  0.70740919  0.21170375  0.08955253     0.39000
C1430       C  0.74447726  0.09178228  0.10113674     0.35900
C1431       C  0.76395619  0.13220409  0.02170732     0.36600
C1432       C  0.67558386  0.04501274  0.02039185     0.39900
N1433       N  0.69982297  0.23592110  0.08719542    -0.38200
N1434       N  0.68768970  0.17900582  0.01657520    -0.39800
N1435       N  0.76298569  0.12283567  0.17417977    -0.37500
N1436       N  0.75216419  0.06758051  0.10330622    -0.39900
N1437       N  0.65648548  0.09214007  0.08333309    -0.39700
N1438       N  0.65779769  0.02728667  0.02082064    -0.37300
N1439       N  0.77935316  0.09044719  0.95380758    -0.38400
N1440       N  0.78210498  0.14954382  0.02262128    -0.40000
C1441       C  0.92529607  0.30155297  0.05771625    -0.05000
C1442       C  0.89953856  0.28651423  0.05029519     0.09200
C1443       C  0.89710935  0.27177238  0.02160143    -0.02400
C1444       C  0.92050584  0.27142640  0.00083138    -0.00600
C1445       C  0.94679353  0.28541998  0.00880413    -0.04200
C1446       C  0.94891528  0.30077550  0.03723825     0.02800
C1447       C  0.87513646  0.28558458  0.07296871     0.09600
C1448       C  0.87049424  0.25675792  0.01361391     0.35500
C1449       C  0.97583143  0.31472220  0.04615526     0.38900
C1450       C  0.85145979  0.30523742  0.07019322    -0.04600
C1451       C  0.82777980  0.30322376  0.09047148     0.02500
C1452       C  0.82773240  0.28171069  0.11412293    -0.04200
C1453       C  0.85245090  0.26346832  0.11813016    -0.00400
C1454       C  0.87566978  0.26490293  0.09721219    -0.03000
C1455       C  0.85154001  0.32755487  0.04635307     0.36300
C1456       C  0.85512720  0.24490677  0.14516348     0.39900
C1457       C  0.80333286  0.32317085  0.08660511     0.39000
C1458       C  0.90019534  0.24499161  0.10053302     0.35900
C1459       C  0.92747585  0.31776922  0.08656735     0.36600
C1460       C  0.91722142  0.25731901  0.97086174     0.39900
N1461       N  0.78393874  0.33923609  0.08360130    -0.38200
N1462       N  0.85171620  0.34540571  0.02738087    -0.39800
N1463       N  0.85786540  0.23067751  0.16712374    -0.37500
N1464       N  0.91976898  0.22908857  0.10305556    -0.39900
N1465       N  0.84919667  0.24482721  0.00736326    -0.39700
N1466       N  0.91454672  0.24623520  0.94687580    -0.37300
N1467       N  0.99729216  0.32577921  0.05348775    -0.38400
N1468       N  0.92916781  0.33081480  0.10953283    -0.40000
C1469       C  0.17755864  0.34325359  0.34925803    -0.05000
C1470       C  0.19206034  0.37014528  0.35242152     0.09200
C1471       C  0.21262000  0.37860699  0.33040996    -0.02400
C1472       C  0.21886684  0.35998122  0.30524040    -0.00600
C1473       C  0.20444547  0.33289281  0.30206355    -0.04200
C1474       C  0.18373287  0.32458397  0.32417486     0.02800
C1475       C  0.18631767  0.38929428  0.37957532     0.09600
C1476       C  0.22733678  0.40648884  0.33378032     0.35500
C1477       C  0.16957598  0.29628327  0.32195852     0.38900
C1478       C  0.20418988  0.38703238  0.40605136    -0.04600
C1479       C  0.20055049  0.40690714  0.43066102     0.02500
C1480       C  0.17963279  0.42972947  0.42834518    -0.04200
C1481       C  0.16007800  0.43030010  0.40293473    -0.00400
C1482       C  0.16344634  0.40997755  0.37858798    -0.03000
C1483       C  0.22688399  0.36478795  0.40747248     0.36300
C1484       C  0.13770380  0.45281552  0.40069851     0.39900
C1485       C  0.21844240  0.40395504  0.45832825     0.39000
C1486       C  0.14407218  0.41092719  0.35196985     0.35900
C1487       C  0.15658637  0.33472135  0.37216973     0.36600
C1488       C  0.23958908  0.36901508  0.28229027     0.39900
N1489       N  0.23260542  0.40162899  0.48044720    -0.38200
N1490       N  0.24502963  0.34709590  0.40849726    -0.39800
N1491       N  0.11984022  0.47075482  0.39888303    -0.37500
N1492       N  0.12858015  0.41157352  0.33076260    -0.39900
N1493       N  0.23907679  0.42872381  0.33649302    -0.39700
N1494       N  0.25609411  0.37619246  0.26395660    -0.37300
N1495       N  0.15827688  0.27372661  0.32030816    -0.38400
N1496       N  0.13988401  0.32807391  0.39051781    -0.40000
C1497       C  0.34494045  0.20475663  0.31493063    -0.05000
C1498       C  0.35611929  0.22766350  0.33337910     0.09200
C1499       C  0.34444467  0.25627904  0.33093127    -0.02400
C1500       C  0.32364278  0.26273095  0.30791703    -0.00600
C1501       C  0.31410872  0.24027342  0.28744741    -0.04200
C1502       C  0.32350719  0.21094327  0.29240077     0.02800
C1503       C  0.38197024  0.22263102  0.35351263     0.09600
C1504       C  0.35498156  0.27938896  0.35129782     0.35500
C1505       C  0.31075044  0.18706480  0.27477109     0.38900
C1506       C  0.40914299  0.23266174  0.34367269    -0.04600
C1507       C  0.43307966  0.23168109  0.36396036     0.02500
C1508       C  0.43032901  0.21883350  0.39334858    -0.04200
C1509       C  0.40352716  0.20741940  0.40264772    -0.00400
C1510       C  0.37913397  0.21006563  0.38302749    -0.03000
C1511       C  0.41234382  0.24415078  0.31266995     0.36300
C1512       C  0.40083249  0.19395174  0.43281097     0.39900
C1513       C  0.46048737  0.24399186  0.35464861     0.39000
C1514       C  0.35098618  0.20081825  0.39351331     0.35900
C1515       C  0.35633474  0.17510783  0.31835037     0.36600
C1516       C  0.31364802  0.29291327  0.30437072     0.39900
N1517       N  0.48224953  0.25408412  0.34737216    -0.38200
N1518       N  0.41489695  0.25312625  0.28787715    -0.39800
N1519       N  0.39873958  0.18313050  0.45683149    -0.37500
N1520       N  0.32849584  0.19359984  0.40196353    -0.39900
N1521       N  0.36354100  0.29770587  0.36754551    -0.39700
N1522       N  0.30580941  0.31701678  0.30161464    -0.37300
N1523       N  0.30027344  0.16796726  0.26103382    -0.38400
N1524       N  0.36547984  0.15147593  0.32110278    -0.40000
C1525       C  0.32509087  0.38684151  0.18556873    -0.05000
C1526       C  0.35438591  0.38520640  0.19506957     0.09200
C1527       C  0.36414573  0.36135730  0.21324745    -0.02400
C1528       C  0.34519792  0.33837029  0.22037064    -0.00600
C1529       C  0.31613300  0.33918380  0.20960473    -0.04200
C1530       C  0.30596963  0.36391054  0.19283746     0.02800
C1531       C  0.37541507  0.40819955  0.18561994     0.09600
C1532       C  0.39397563  0.36027884  0.22414681     0.35500
C1533       C  0.27639791  0.36488815  0.18123981     0.38900
C1534       C  0.37627508  0.43536154  0.20137634    -0.04600
C1535       C  0.39805151  0.45574945  0.19474813     0.02500
C1536       C  0.41975691  0.44868025  0.17309244    -0.04200
C1537       C  0.41825820  0.42198662  0.15641122    -0.00400
C1538       C  0.39593883  0.40191174  0.16247351    -0.03000
C1539       C  0.35544303  0.44180656  0.22533811     0.36300
C1540       C  0.44054873  0.41439109  0.13437547     0.39900
C1541       C  0.39807657  0.48414886  0.21021292     0.39000
C1542       C  0.39458869  0.37426593  0.14569500     0.35900
C1543       C  0.31489833  0.41170802  0.16747984     0.36600
C1544       C  0.35592595  0.31362435  0.23838571     0.39900
N1545       N  0.39807133  0.50684753  0.22240662    -0.38200
N1546       N  0.33888105  0.44689628  0.24452572    -0.39800
N1547       N  0.45838790  0.40824908  0.11688253    -0.37500
N1548       N  0.39345844  0.35214336  0.13243997    -0.39900
N1549       N  0.41779258  0.35948065  0.23269991    -0.39700
N1550       N  0.36476315  0.29388849  0.25253707    -0.37300
N1551       N  0.25282167  0.36555431  0.17192503    -0.38400
N1552       N  0.30676126  0.43161422  0.15313393    -0.40000
C1553       C  0.15199966  0.28062488  0.10838532    -0.05000
C1554       C  0.12318018  0.27077528  0.10934679     0.09200
C1555       C  0.11266599  0.25741057  0.13624421    -0.02400
C1556       C  0.13108348  0.25346118  0.16200065    -0.00600
C1557       C  0.15990169  0.26357572  0.16122545    -0.04200
C1558       C  0.17038432  0.27704438  0.13431017     0.02800
C1559       C  0.10449104  0.27258076  0.08115784     0.09600
C1560       C  0.08306462  0.24709870  0.13709930     0.35500
C1561       C  0.19998988  0.28719566  0.13314450     0.38900
C1562       C  0.10015413  0.24727393  0.06300546    -0.04600
C1563       C  0.08252604  0.24856539  0.03629404     0.02500
C1564       C  0.06951990  0.27568894  0.02690068    -0.04200
C1565       C  0.07529937  0.30143494  0.04479018    -0.00400
C1566       C  0.09191619  0.29953537  0.07224668    -0.03000
C1567       C  0.11407303  0.21974947  0.07194110     0.36300
C1568       C  0.06476825  0.33022330  0.03531394     0.39900
C1569       C  0.07860875  0.22167505  0.01861066     0.39000
C1570       C  0.09590125  0.32532570  0.09169448     0.35900
C1571       C  0.16279246  0.29391267  0.08041603     0.36600
C1572       C  0.12086938  0.23732729  0.18858052     0.39900
N1573       N  0.07553866  0.19993741  0.00501249    -0.38200
N1574       N  0.12516905  0.19788207  0.07917880    -0.39800
N1575       N  0.05683493  0.35336047  0.02780295    -0.37500
N1576       N  0.09898171  0.34582750  0.10728152    -0.39900
N1577       N  0.05950851  0.23875301  0.13777720    -0.39700
N1578       N  0.11281423  0.22422678  0.20961979    -0.37300
N1579       N  0.22357259  0.29535423  0.13176408    -0.38400
N1580       N  0.17120571  0.30453679  0.05803719    -0.40000
C1581       C  0.25613602  0.15156144  0.09596398    -0.05000
C1582       C  0.27788744  0.13000839  0.09996115     0.09200
C1583       C  0.29593751  0.13032757  0.12639351    -0.02400
C1584       C  0.29226741  0.15231670  0.14899629    -0.00600
C1585       C  0.27027623  0.17394555  0.14525549    -0.04200
C1586       C  0.25224404  0.17349979  0.11853627     0.02800
C1587       C  0.28119433  0.10639889  0.07650232     0.09600
C1588       C  0.31817830  0.10786106  0.13031886     0.35500
C1589       C  0.23022863  0.19605885  0.11359699     0.38900
C1590       C  0.29819762  0.11108749  0.05019413    -0.04600
C1591       C  0.30050431  0.08897970  0.02751218     0.02500
C1592       C  0.28604598  0.06211237  0.03138949    -0.04200
C1593       C  0.26879462  0.05758090  0.05764165    -0.00400
C1594       C  0.26647440  0.07971423  0.08023584    -0.03000
C1595       C  0.31329524  0.13864909  0.04660397     0.36300
C1596       C  0.25392292  0.02993652  0.06180986     0.39900
C1597       C  0.31680005  0.09430199  0.99968863     0.39000
C1598       C  0.24913189  0.07506892  0.10749723     0.35900
C1599       C  0.23784850  0.15111355  0.06844687     0.36600
C1600       C  0.31084138  0.15216275  0.17627869     0.39900
N1601       N  0.32958866  0.09881063  0.97741016    -0.38200
N1602       N  0.32536073  0.16063473  0.04382357    -0.39800
N1603       N  0.24196707  0.00796819  0.06519824    -0.37500
N1604       N  0.23540271  0.07144305  0.12931868    -0.39900
N1605       N  0.33587174  0.08991116  0.13347332    -0.39700
N1606       N  0.32590645  0.15193952  0.19783837    -0.37300
N1607       N  0.21258033  0.21391320  0.10959733    -0.38400
N1608       N  0.22338120  0.15069712  0.04643099    -0.40000
C1609       C  0.06767933  0.89883485  0.28732416    -0.05000
C1610       C  0.09209218  0.89762567  0.26813718     0.09200
C1611       C  0.09611900  0.91949608  0.24563479    -0.02400
C1612       C  0.07511997  0.94176915  0.24137265    -0.00600
C1613       C  0.04962430  0.94191921  0.25919249    -0.04200
C1614       C  0.04623299  0.92061051  0.28258381     0.02800
C1615       C  0.11184033  0.87153644  0.26917837     0.09600
C1616       C  0.12156482  0.91864801  0.22630092     0.35500
C1617       C  0.01999292  0.91988314  0.30062376     0.38900
C1618       C  0.10247973  0.84471423  0.25611963    -0.04600
C1619       C  0.12157606  0.82054149  0.25456977     0.02500
C1620       C  0.15027604  0.82322162  0.26567546    -0.04200
C1621       C  0.15941891  0.84974552  0.27959152    -0.00400
C1622       C  0.14007806  0.87379584  0.28166912    -0.03000
C1623       C  0.07336144  0.84227237  0.24345930     0.36300
C1624       C  0.18866259  0.85219453  0.29184129     0.39900
C1625       C  0.11208275  0.79339164  0.24003964     0.39000
C1626       C  0.14918337  0.90090533  0.29644546     0.35900
C1627       C  0.06435421  0.87704915  0.31138972     0.36600
C1628       C  0.07999472  0.96464637  0.21876360     0.39900
N1629       N  0.10451346  0.77175457  0.22847248    -0.38200
N1630       N  0.05009042  0.84037438  0.23352442    -0.39800
N1631       N  0.21200136  0.85407935  0.30160009    -0.37500
N1632       N  0.15642479  0.92252816  0.30828013    -0.39900
N1633       N  0.14188700  0.91809203  0.21093964    -0.39700
N1634       N  0.08384034  0.98287116  0.20072718    -0.37300
N1635       N  0.99902883  0.91916334  0.31494676    -0.38400
N1636       N  0.06181822  0.85960006  0.33052553    -0.40000
C1637       C  0.83129556  0.88853352  0.21782383    -0.05000
C1638       C  0.85529542  0.88098355  0.23676127     0.09200
C1639       C  0.85610876  0.85342410  0.25174410    -0.02400
C1640       C  0.83345319  0.83318500  0.24702464    -0.00600
C1641       C  0.80974418  0.84061544  0.22764978    -0.04200
C1642       C  0.80846214  0.86859268  0.21359850     0.02800
C1643       C  0.88006248  0.90185210  0.23990048     0.09600
C1644       C  0.88017620  0.84608959  0.27218778     0.35500
C1645       C  0.78363391  0.87695447  0.19461068     0.38900
C1646       C  0.87700223  0.92809812  0.25715209    -0.04600
C1647       C  0.89927915  0.94909944  0.25749625     0.02500
C1648       C  0.92530368  0.94353954  0.24146712    -0.04200
C1649       C  0.92853006  0.91690160  0.22472099    -0.00400
C1650       C  0.90593645  0.89627495  0.22382426    -0.03000
C1651       C  0.85071267  0.93359860  0.27431562     0.36300
C1652       C  0.95520257  0.91041308  0.20858776     0.39900
C1653       C  0.89461559  0.97715390  0.27285522     0.39000
C1654       C  0.90912962  0.86934718  0.20600934     0.35900
C1655       C  0.83022569  0.91680632  0.20239614     0.36600
C1656       C  0.83405518  0.80514813  0.26283223     0.39900
N1657       N  0.89083203  0.99963818  0.28484599    -0.38200
N1658       N  0.82973872  0.93799089  0.28799684    -0.39800
N1659       N  0.97642151  0.90524154  0.19562413    -0.37500
N1660       N  0.91160820  0.84777117  0.19197025    -0.39900
N1661       N  0.89944146  0.84033501  0.28846956    -0.39700
N1662       N  0.83447847  0.78283729  0.27559140    -0.37300
N1663       N  0.76385305  0.88399686  0.17965195    -0.38400
N1664       N  0.82931995  0.93940553  0.19022110    -0.40000
C1665       C  0.88180704  0.08039775  0.20478380    -0.05000
C1666       C  0.88642113  0.10963301  0.21453975     0.09200
C1667       C  0.91282983  0.11745875  0.22885507    -0.02400
C1668       C  0.93412253  0.09580910  0.23470754    -0.00600
C1669       C  0.92941272  0.06650225  0.22521701    -0.04200
C1670       C  0.90339109  0.05887912  0.20989079     0.02800
C1671       C  0.86273707  0.13184622  0.21139155     0.09600
C1672       C  0.91799422  0.14784606  0.23743618     0.35500
C1673       C  0.89833016  0.02865353  0.20053717     0.38900
C1674       C  0.84632983  0.13969462  0.23748477    -0.04600
C1675       C  0.82364263  0.16036663  0.23469750     0.02500
C1676       C  0.81651102  0.17238717  0.20548178    -0.20200
C1677       C  0.83258924  0.16391863  0.17919831    -0.00400
C1678       C  0.85617895  0.14434646  0.18237297    -0.03000
C1679       C  0.85245494  0.12594362  0.26709081     0.36300
C1680       C  0.82392890  0.17392925  0.14858507     0.39900
C1681       C  0.80779897  0.16933276  0.26198394     0.39000
C1682       C  0.87354113  0.13675385  0.15573824     0.35900
C1683       C  0.85461955  0.07242894  0.19000406     0.36600
C1684       C  0.96089845  0.10372435  0.25034995     0.39900
N1685       N  0.79516864  0.17646633  0.28374553    -0.38200
N1686       N  0.85732355  0.11485031  0.29063121    -0.39800
N1687       N  0.81697649  0.18188424  0.12420102    -0.37500
N1688       N  0.88741308  0.13074431  0.13449655    -0.39900
N1689       N  0.92202642  0.17214059  0.24411250    -0.39700
N1690       N  0.98218379  0.11007250  0.26295022    -0.37300
N1691       N  0.89427000  0.00454916  0.19312644    -0.38400
N1692       N  0.83294632  0.06619110  0.17813152    -0.40000
C1693       C  0.12696981  0.14369329  0.26805524    -0.05000
C1694       C  0.12363774  0.12461586  0.24253112     0.09200
C1695       C  0.14232347  0.12702217  0.21714111    -0.02400
C1696       C  0.16272768  0.14991290  0.21613531    -0.00600
C1697       C  0.16530380  0.16996791  0.24123257    -0.04200
C1698       C  0.14824935  0.16562479  0.26784236     0.02800
C1699       C  0.09963123  0.10274942  0.24199632     0.09600
C1700       C  0.13999951  0.10622959  0.19170688     0.35500
C1701       C  0.15259899  0.18359825  0.29530216     0.38900
C1702       C  0.07501017  0.10760285  0.22294927    -0.04600
C1703       C  0.05196145  0.08753735  0.22304324     0.02500
C1704       C  0.05306607  0.06288084  0.24276169    -0.04200
C1705       C  0.07757957  0.05815734  0.26202573    -0.00400
C1706       C  0.10098550  0.07778715  0.26125469    -0.03000
C1707       C  0.07328073  0.13347746  0.20348345     0.36300
C1708       C  0.07908565  0.03267743  0.28207852     0.39900
C1709       C  0.02672493  0.09273127  0.20345794     0.39000
C1710       C  0.12667514  0.07217943  0.27999583     0.35900
C1711       C  0.10776693  0.14140843  0.29421524     0.36600
C1712       C  0.17982197  0.15340070  0.18851515     0.39900
N1713       N  0.00657648  0.09683219  0.18786318    -0.38200
N1714       N  0.07198908  0.15407252  0.18789628    -0.39800
N1715       N  0.08025614  0.01240671  0.29813765    -0.37500
N1716       N  0.14721138  0.06777856  0.29490076    -0.39900
N1717       N  0.13806148  0.08959657  0.17148417    -0.39700
N1718       N  0.19329091  0.15588508  0.16632053    -0.37300
N1719       N  0.15612316  0.19790683  0.31718770    -0.38400
N1720       N  0.09243975  0.13963018  0.31506034    -0.40000
loop_ 
_geom_bond_atom_site_label_1 
_geom_bond_atom_site_label_2 
_geom_bond_distance 
_geom_bond_site_symmetry_2 
_ccdc_geom_bond_type 
O1           Ni9   1.910   1_465  S
O1           C11   1.281       .  A
O2           Ni9   1.909       .  S
O2           C12   1.279       .  A
O3           Ni9   1.915   1_455  S
O3           C13   1.281       .  A
O4           Ni9   1.914   1_565  S
O4           C14   1.281       .  A
O5          Ni10   1.921   1_565  S
O5           C14   1.282       .  A
O6          Ni10   1.916   1_455  S
O6           C13   1.281       .  A
O7          Ni10   1.913       .  S
O7           C12   1.280       .  A
O8          Ni10   1.911   1_465  S
O8           C11   1.280       .  A
Ni9         Ni10   2.391       .  S
C11        C1613   1.483       .  S
C12        C1669   1.472       .  S
C13        C1704   1.481       .  S
C14        C1648   1.489       .  S
O15         Ni21   1.915       .  S
O15          C36   1.265       .  A
O16         Ni39   1.887       .  S
O16          C25   1.263       .  A
O17         Ni21   1.916       .  S
O17         Ni39   1.900       .  S
O17         Ni33   1.912       .  S
O17          H40   0.966       .  S
C18          O35   1.272       .  A
C18          O27   1.271       .  A
C18        C1529   1.486       .  S
O19         Ni38   1.923       .  S
O19          C25   1.269       .  A
O20         Ni38   1.903       .  S
O20          C22   1.269       .  A
Ni21         O24   1.916       .  S
Ni21         O26   1.895       .  S
C22          O32   1.270       .  A
C22        C1501   1.485       .  S
O23         Ni39   1.920       .  S
O23          C29   1.275       .  A
O24          C29   1.274       .  A
C25        C1585   1.479       .  S
O26          C28   1.265       .  A
O27         Ni38   1.920       .  S
C28          O34   1.268       .  A
C28        C1557   1.474       .  S
C29        C1697   1.495       .  S
H30          O31   0.965       .  S
O31         Ni39   1.918       .  S
O31         Ni33   1.913       .  S
O31         Ni38   1.922       .  S
O32         Ni33   1.922       .  S
Ni33         O37   1.903       .  S
Ni33         O35   1.915       .  S
O34         Ni39   1.921       .  S
C36          O37   1.265       .  A
C36        C1473   1.477       .  S
O41         Ni47   1.932       .  S
O41          C62   1.270       .  A
O42         Ni65   1.916       .  S
O42          C51   1.271       .  A
O43         Ni47   1.916       .  S
O43         Ni65   1.912       .  S
O43         Ni59   1.904       .  S
O43          H66   0.966       .  S
C44          O61   1.270       .  A
C44          O53   1.275       .  A
C44        C1389   1.478       .  S
O45         Ni64   1.939       .  S
O45          C51   1.273       .  A
O46         Ni64   1.914       .  S
O46          C48   1.271       .  A
Ni47         O50   1.916       .  S
Ni47         O52   1.903       .  S
C48          O58   1.271       .  A
C48        C1361   1.498       .  S
O49         Ni65   1.905       .  S
O49          C55   1.273       .  A
O50          C55   1.274       .  A
C51        C1452   1.499       .  S
O52          C54   1.269       .  A
O53         Ni64   1.928       .  S
C54          O60   1.276       .  A
C54        C1424   1.488       .  S
C55        C1676   1.478       .  S
H56          O57   0.966       .  S
O57         Ni65   1.907       .  S
O57         Ni59   1.914       .  S
O57         Ni64   1.922       .  S
O58         Ni59   1.929       .  S
Ni59         O63   1.909       .  S
Ni59         O61   1.897       .  S
O60         Ni65   1.940       .  S
C62          O63   1.265       .  A
C62        C1333   1.494       .  S
O67         Ni73   1.925       .  S
O67          C88   1.271       .  A
O68         Ni91   1.890       .  S
O68          C77   1.264       .  A
O69         Ni73   1.910       .  S
O69         Ni91   1.899       .  S
O69         Ni85   1.922       .  S
O69          H92   0.966       .  S
C70          O87   1.279       .  A
C70          O79   1.275       .  A
C70        C1641   1.480       .  S
O71         Ni90   1.915       .  S
O71          C77   1.266       .  A
O72         Ni90   1.912       .  S
O72          C74   1.268       .  A
Ni73         O76   1.931       .  S
Ni73         O78   1.904       .  S
C74          O84   1.271       .  A
C74        C1312   1.501       .  S
O75         Ni91   1.907       .  S
O75          C81   1.272       .  A
O76          C81   1.275       .  A
C77        C1221   1.463       .  S
O78          C80   1.268       .  A
O79         Ni90   1.916       .  S
C80          O86   1.278       .  A
C80        C1193   1.524       .  S
C81        C1249   1.488       .  S
H82          O83   0.966       .  S
O83         Ni91   1.915       .  S
O83         Ni85   1.888       .  S
O83         Ni90   1.914       .  S
O84         Ni85   1.931       .  S
Ni85         O89   1.882       .  S
Ni85         O87   1.930       .  S
O86         Ni91   1.952       .  S
C88          O89   1.262       .  A
C88        C1277   1.464       .  S
O93         Ni99   1.914       .  S
O93         C114   1.266       .  A
O94        Ni117   1.912       .  S
O94         C103   1.271       .  A
O95         Ni99   1.897       .  S
O95        Ni117   1.897       .  S
O95        Ni111   1.913       .  S
O95         H118   0.966       .  S
C96         O113   1.276       .  A
C96         O105   1.280       .  A
C96        C1620   1.473       .  S
O97        Ni116   1.921       .  S
O97         C103   1.266       .  A
O98        Ni116   1.898       .  S
O98         C100   1.264       .  A
Ni99        O102   1.912       .  S
Ni99        O104   1.897       .  S
C100        O110   1.266       .  A
C100       C1172   1.478       .  S
O101       Ni117   1.914       .  S
O101        C107   1.277       .  A
O102        C107   1.276       .  A
C103       C1081   1.496       .  S
O104        C106   1.268       .  A
O105       Ni116   1.924       .  S
C106        O112   1.273       .  A
C106       C1060   1.489       .  S
C107       C1109   1.483       .  S
H108        O109   0.966       .  S
O109       Ni117   1.908       .  S
O109       Ni111   1.887       .  S
O109       Ni116   1.894       .  S
O110       Ni111   1.915       .  S
Ni111       O115   1.894       .  S
Ni111       O113   1.909       .  S
O112       Ni117   1.928       .  S
C114        O115   1.262       .  A
C114       C1137   1.469       .  S
O119       Ni127   1.905       .  S
O119        C129   1.278       .  A
O120       Ni127   1.909   1_544  S
O120        C130   1.279       .  A
O121       Ni127   1.906   1_554  S
O121        C131   1.279       .  A
O122       Ni127   1.909   1_545  S
O122        C132   1.280       .  A
O123       Ni128   1.906   1_545  S
O123        C132   1.280       .  A
O124       Ni128   1.902   1_554  S
O124        C131   1.278       .  A
O125       Ni128   1.906   1_545  S
O125        C130   1.278   1_556  A
O126       Ni128   1.906       .  S
O126        C129   1.280       .  A
Ni127      Ni128   2.390       .  S
C129       C1025   1.471       .  S
C130       C1592   1.469       .  S
C131       C1144   1.468       .  S
C132        C997   1.496       .  S
O133       Ni141   1.929   1_655  S
O133        C143   1.283       .  A
O134       Ni141   1.924       .  S
O134        C144   1.283       .  A
O135       Ni141   1.912   1_655  S
O135        C145   1.280       .  A
O136       Ni141   1.910       .  S
O136        C146   1.280       .  A
O137       Ni142   1.909       .  S
O137        C146   1.280       .  A
O138       Ni142   1.905   1_655  S
O138        C145   1.279       .  A
O139       Ni142   1.924       .  S
O139        C144   1.283       .  A
O140       Ni142   1.922   1_655  S
O140        C143   1.282       .  A
Ni141      Ni142   2.383       .  S
C143       C1445   1.493   1_556  S
C144        C976   1.500       .  S
C145        C948   1.477       .  S
C146       C1564   1.501   1_556  S
O147       Ni155   1.927   1_545  S
O147        C157   1.283       .  A
O148       Ni155   1.931       .  S
O148        C158   1.284       .  A
O149       Ni155   1.921   1_545  S
O149        C159   1.282       .  A
O150       Ni155   1.921       .  S
O150        C160   1.281       .  A
O151       Ni156   1.923       .  S
O151        C160   1.282       .  A
O152       Ni156   1.921   1_545  S
O152        C159   1.283       .  A
O153       Ni156   1.917       .  S
O153        C158   1.281       .  A
O154       Ni156   1.920   1_545  S
O154        C157   1.281       .  A
Ni155      Ni156   2.387       .  S
C157        C913   1.488       .  S
C158       C1305   1.490   1_556  S
C159       C1417   1.497       .  S
C160        C892   1.488       .  S
O161       Ni169   1.925   1_554  S
O161        C171   1.283       .  A
O162       Ni169   1.922   1_655  S
O162        C172   1.281       .  A
O163       Ni169   1.905       .  S
O163        C173   1.278       .  A
O164       Ni169   1.905   1_654  S
O164        C174   1.279       .  A
O165       Ni170   1.902   1_655  S
O165        C174   1.279   1_556  A
O166       Ni170   1.901       .  S
O166        C173   1.279       .  A
O167       Ni170   1.910   1_655  S
O167        C172   1.279       .  A
O168       Ni170   1.906       .  S
O168        C171   1.277   1_556  A
Ni169      Ni170   2.389       .  S
C171       C1165   1.474       .  S
C172        C857   1.476       .  S
C173        C836   1.471       .  S
C174       C1284   1.489       .  S
O175       Ni181   1.920       .  S
O175        C196   1.268       .  A
O176       Ni199   1.900       .  S
O176        C185   1.266       .  A
O177       Ni181   1.900       .  S
O177       Ni199   1.889       .  S
O177       Ni193   1.906       .  S
O177        H200   0.965       .  S
C178        O195   1.275       .  A
C178        O187   1.277       .  A
C178        C829   1.474       .  S
O179       Ni198   1.917       .  S
O179        C185   1.268       .  A
O180       Ni198   1.904       .  S
O180        C182   1.267       .  A
Ni181       O184   1.913       .  S
Ni181       O186   1.907       .  S
C182        O192   1.276       .  A
C182        C801   1.494       .  S
O183       Ni199   1.905       .  S
O183        C189   1.275       .  A
O184        C189   1.277       .  A
C185        C724   1.475       .  S
O186        C188   1.268       .  A
O187       Ni198   1.914       .  S
C188        O194   1.274       .  A
C188        C773   1.502       .  S
C189        C745   1.460       .  S
H190        O191   0.967       .  S
O191       Ni199   1.907       .  S
O191       Ni193   1.892       .  S
O191       Ni198   1.899       .  S
O192       Ni193   1.948       .  S
Ni193       O197   1.897       .  S
Ni193       O195   1.906       .  S
O194       Ni199   1.936       .  S
C196        O197   1.268       .  A
C196       C1032   1.474       .  S
O201       Ni209   1.912   1_655  S
O201        C211   1.280       .  A
O202       Ni209   1.916   1_545  S
O202        C212   1.280       .  A
O203       Ni209   1.922   1_545  S
O203        C213   1.282   1_455  A
O204       Ni209   1.924       .  S
O204        C214   1.283       .  A
O205       Ni210   1.930       .  S
O205        C214   1.284       .  A
O206       Ni210   1.935   1_545  S
O206        C213   1.285   1_455  A
O207       Ni210   1.916   1_545  S
O207        C212   1.280       .  A
O208       Ni210   1.917       .  S
O208        C211   1.281   1_455  A
Ni209      Ni210   2.382       .  S
C211        C633   1.485       .  S
C212        C689   1.478       .  S
C213        C668   1.524       .  S
C214        C808   1.501       .  S
O215       Ni221   1.930       .  S
O215        C236   1.271       .  A
O216       Ni239   1.901       .  S
O216        C225   1.268       .  A
O217       Ni221   1.909       .  S
O217       Ni239   1.901       .  S
O217       Ni233   1.906       .  S
O217        H240   0.966       .  S
C218        O235   1.276       .  A
C218        O227   1.278       .  A
C218        C696   1.499       .  S
O219       Ni238   1.928       .  S
O219        C225   1.272       .  A
O220       Ni238   1.904       .  S
O220        C222   1.268       .  A
Ni221       O224   1.919       .  S
Ni221       O226   1.908       .  S
C222        O232   1.273       .  A
C222        C969   1.490       .  S
O223       Ni239   1.916       .  S
O223        C229   1.276       .  A
O224        C229   1.275       .  A
C225        C577   1.480       .  S
O226        C228   1.269       .  A
O227       Ni238   1.922       .  S
C228        O234   1.274       .  A
C228        C556   1.489       .  S
C229        C605   1.478       .  S
H230        O231   0.965       .  S
O231       Ni239   1.909       .  S
O231       Ni233   1.893       .  S
O231       Ni238   1.902       .  S
O232       Ni233   1.936       .  S
Ni233       O237   1.886       .  S
Ni233       O235   1.921       .  S
O234       Ni239   1.938       .  S
C236        O237   1.264       .  A
C236       C1004   1.471       .  S
O241       Ni247   1.929       .  S
O241        C262   1.271       .  A
O242       Ni265   1.889       .  S
O242        C251   1.266       .  A
O243       Ni247   1.909       .  S
O243       Ni265   1.897       .  S
O243       Ni259   1.915       .  S
O243        H266   0.966       .  S
C244        O261   1.276       .  A
C244        O253   1.275       .  A
C244        C661   1.504       .  S
O245       Ni264   1.930       .  S
O245        C251   1.273       .  A
O246       Ni264   1.921       .  S
O246        C248   1.272       .  A
Ni247       O250   1.926       .  S
Ni247       O252   1.912       .  S
C248        O258   1.270       .  A
C248        C920   1.495       .  S
O249       Ni265   1.930       .  S
O249        C255   1.278       .  A
O250        C255   1.276       .  A
C251        C493   1.491       .  S
O252        C254   1.270       .  A
O253       Ni264   1.931       .  S
C254        O260   1.276       .  A
C254        C472   1.506       .  S
C255        C528   1.488       .  S
H256        O257   0.966       .  S
O257       Ni265   1.922       .  S
O257       Ni259   1.903       .  S
O257       Ni264   1.920       .  S
O258       Ni259   1.923       .  S
Ni259       O263   1.889       .  S
Ni259       O261   1.925       .  S
O260       Ni265   1.938       .  S
C262        O263   1.262       .  A
C262        C941   1.475       .  S
O267       Ni273   1.930       .  S
O267        C288   1.272       .  A
O268       Ni291   1.904       .  S
O268        C277   1.267       .  A
O269       Ni273   1.921       .  S
O269       Ni291   1.913       .  S
O269       Ni285   1.918       .  S
O269        H292   0.956       .  S
C270        O287   1.275       .  A
C270        O279   1.278       .  A
C270        C437   1.485       .  S
O271       Ni290   1.929       .  S
O271        C277   1.270       .  A
O272       Ni290   1.914       .  S
O272        C274   1.269       .  A
Ni273       O276   1.927       .  S
Ni273       O278   1.912       .  S
C274        O284   1.269       .  A
C274        C416   1.489       .  S
O275       Ni291   1.900       .  S
O275        C281   1.269       .  A
O276        C281   1.273       .  A
C277        C864   1.498       .  S
O278        C280   1.272       .  A
O279       Ni290   1.925       .  S
C280        O286   1.277       .  A
C280        C885   1.496       .  S
C281        C640   1.488       .  S
H282        O283   0.968       .  S
O283       Ni291   1.899       .  S
O283       Ni285   1.886       .  S
O283       Ni290   1.913       .  S
O284       Ni285   1.924       .  S
Ni285       O289   1.886       .  S
Ni285       O287   1.906       .  S
O286       Ni291   1.942       .  S
C288        O289   1.262       .  A
C288        C381   1.483       .  S
O293       Ni301   1.905       .  S
O293        C303   1.278       .  A
O294       Ni301   1.905       .  S
O294        C304   1.278       .  A
O295       Ni301   1.929       .  S
O295        C305   1.284       .  A
O296       Ni301   1.931       .  S
O296        C306   1.284       .  A
O297       Ni302   1.916       .  S
O297        C306   1.280       .  A
O298       Ni302   1.915       .  S
O298        C305   1.280       .  A
O299       Ni302   1.918       .  S
O299        C304   1.282       .  A
O300       Ni302   1.917       .  S
O300        C303   1.282       .  A
Ni301      Ni302   2.390       .  S
C303        C612   1.477       .  S
C304        C444   1.476       .  S
C305        C780   1.491       .  S
C306        C521   1.490       .  S
O307       Ni315   1.914       .  S
O307        C317   1.280       .  A
O308       Ni315   1.913       .  S
O308        C318   1.280       .  A
O309       Ni315   1.925       .  S
O309        C319   1.283       .  A
O310       Ni315   1.928       .  S
O310        C320   1.283       .  A
O311       Ni316   1.904       .  S
O311        C320   1.278       .  A
O312       Ni316   1.911       .  S
O312        C319   1.280       .  A
O313       Ni316   1.904       .  S
O313        C318   1.279       .  A
O314       Ni316   1.905       .  S
O314        C317   1.279       .  A
Ni315      Ni316   2.386       .  S
C317       C1396   1.476       .  S
C318       C1116   1.502       .  S
C319       C1256   1.486       .  S
C320       C1536   1.482       .  S
O321       Ni329   1.926       .  S
O321        C331   1.282       .  A
O322       Ni329   1.922       .  S
O322        C332   1.282       .  A
O323       Ni329   1.927       .  S
O323        C333   1.284       .  A
O324       Ni329   1.931       .  S
O324        C334   1.284       .  A
O325       Ni330   1.916       .  S
O325        C334   1.279       .  A
O326       Ni330   1.916       .  S
O326        C333   1.281       .  A
O327       Ni330   1.934       .  S
O327        C332   1.285       .  A
O328       Ni330   1.926       .  S
O328        C331   1.284       .  A
Ni329      Ni330   2.380       .  S
C331       C1200   1.501       .  S
C332        C465   1.519       .  S
C333        C409   1.506       .  S
C334       C1368   1.485       .  S
O335       Ni343   1.902       .  S
O335        C345   1.278       .  A
O336       Ni343   1.903       .  S
O336        C346   1.278       .  A
O337       Ni343   1.908       .  S
O337        C347   1.280       .  A
O338       Ni343   1.908       .  S
O338        C348   1.281       .  A
O339       Ni344   1.892       .  S
O339        C348   1.276       .  A
O340       Ni344   1.896       .  S
O340        C347   1.276       .  A
O341       Ni344   1.915       .  S
O341        C346   1.281       .  A
O342       Ni344   1.918       .  S
O342        C345   1.282       .  A
Ni343      Ni344   2.395       .  S
C345        C388   1.476       .  S
C346       C1053   1.470       .  S
C347       C1228   1.463       .  S
C348        C752   1.471       .  S
O349       Ni357   1.894       .  S
O349        C359   1.278       .  A
O350       Ni357   1.898       .  S
O350        C360   1.278       .  A
O351       Ni357   1.901       .  S
O351        C361   1.279       .  A
O352       Ni357   1.899       .  S
O352        C362   1.277       .  A
O353       Ni358   1.918       .  S
O353        C362   1.281       .  A
O354       Ni358   1.920       .  S
O354        C361   1.282       .  A
O355       Ni358   1.916       .  S
O355        C360   1.281       .  A
O356       Ni358   1.917       .  S
O356        C359   1.281       .  A
Ni357      Ni358   2.392       .  S
C359       C1480   1.477       .  S
C360        C717   1.476       .  S
C361        C584   1.481       .  S
C362       C1088   1.467       .  S
O363       Ni371   1.919       .  S
O363        C373   1.282       .  A
O364       Ni371   1.918       .  S
O364        C374   1.282       .  A
O365       Ni371   1.908       .  S
O365        C375   1.279       .  A
O366       Ni371   1.910       .  S
O366        C376   1.280       .  A
O367       Ni372   1.904       .  S
O367        C376   1.279       .  A
O368       Ni372   1.906       .  S
O368        C375   1.278       .  A
O369       Ni372   1.924       .  S
O369        C374   1.283       .  A
O370       Ni372   1.922       .  S
O370        C373   1.282       .  A
Ni371      Ni372   2.391       .  S
C373        C549   1.488       .  S
C374       C1340   1.494       .  S
C375       C1508   1.468       .  S
C376        C500   1.473       .  S
C377        C378   1.407       .  A
C377        C382   1.407       .  A
C377        C395   1.452       .  S
C378        C383   1.486       .  S
C378        C379   1.408       .  A
C379        C380   1.407       .  A
C379        C384   1.451       .  S
C380        C381   1.415       .  A
C380        C396   1.451       .  S
C381        C382   1.419       .  A
C382        C385   1.452       .  S
C383        C386   1.408       .  A
C383        C390   1.410       .  A
C384        N401   1.157       .  T
C385        N403   1.157       .  T
C386        C387   1.407       .  A
C386        C391   1.451       .  S
C387        C388   1.416       .  A
C387        C393   1.452       .  S
C388        C389   1.412       .  A
C389        C390   1.407       .  A
C389        C392   1.451       .  S
C390        C394   1.451       .  S
C391        N398   1.157       .  T
C392        N399   1.157       .  T
C393        N397   1.158       .  T
C394        N400   1.157       .  T
C395        N404   1.157       .  T
C396        N402   1.157       .  T
C405        C406   1.409       .  A
C405        C410   1.415       .  A
C405        C423   1.451       .  S
C406        C411   1.501       .  S
C406        C407   1.408       .  A
C407        C408   1.412       .  A
C407        C412   1.451       .  S
C408        C409   1.423       .  A
C408        C424   1.451       .  S
C409        C410   1.422       .  A
C410        C413   1.451       .  S
C411        C414   1.411       .  A
C411        C418   1.411       .  A
C412        N429   1.157       .  T
C413        N431   1.158       .  T
C414        C415   1.411       .  A
C414        C419   1.451       .  S
C415        C416   1.416       .  A
C415        C421   1.452       .  S
C416        C417   1.414       .  A
C417        C418   1.415       .  A
C417        C420   1.450       .  S
C418        C422   1.449       .  S
C419        N426   1.157       .  T
C420        N427   1.157       .  T
C421        N425   1.157       .  T
C422        N428   1.157       .  T
C423        N432   1.157       .  T
C424        N430   1.157       .  T
C433        C434   1.408       .  A
C433        C438   1.403       .  A
C433        C451   1.453       .  S
C434        C439   1.490       .  S
C434        C435   1.410       .  A
C435        C436   1.411       .  A
C435        C440   1.450       .  S
C436        C437   1.417       .  A
C436        C452   1.451       .  S
C437        C438   1.418       .  A
C438        C441   1.451       .  S
C439        C442   1.412       .  A
C439        C446   1.410       .  A
C440        N457   1.157       .  T
C441        N459   1.157       .  T
C442        C443   1.406       .  A
C442        C447   1.452       .  S
C443        C444   1.411       .  A
C443        C449   1.451       .  S
C444        C445   1.414       .  A
C445        C446   1.409       .  A
C445        C448   1.452       .  S
C446        C450   1.451       .  S
C447        N454   1.157       .  T
C448        N455   1.157       .  T
C449        N453   1.157       .  T
C450        N456   1.157       .  T
C451        N460   1.157       .  T
C452        N458   1.157       .  T
C461        C462   1.408       .  A
C461        C466   1.415       .  A
C461        C479   1.452       .  S
C462        C467   1.507       .  S
C462        C463   1.409       .  A
C463        C464   1.419       .  A
C463        C468   1.451       .  S
C464        C465   1.427       .  A
C464        C480   1.450       .  S
C465        C466   1.427       .  A
C466        C469   1.451       .  S
C467        C470   1.412       .  A
C467        C474   1.409       .  A
C468        N485   1.157       .  T
C469        N487   1.157       .  T
C470        C471   1.417       .  A
C470        C475   1.450       .  S
C471        C472   1.419       .  A
C471        C477   1.450       .  S
C472        C473   1.424       .  A
C473        C474   1.414       .  A
C473        C476   1.452       .  S
C474        C478   1.451       .  S
C475        N482   1.157       .  T
C476        N483   1.158       .  T
C477        N481   1.157       .  T
C478        N484   1.157       .  T
C479        N488   1.157       .  T
C480        N486   1.157       .  T
C489        C490   1.406       .  A
C489        C494   1.406       .  A
C489        C507   1.452       .  S
C490        C495   1.484       .  S
C490        C491   1.406       .  A
C491        C492   1.408       .  A
C491        C496   1.452       .  S
C492        C493   1.422       .  A
C492        C508   1.452       .  S
C493        C494   1.421       .  A
C494        C497   1.453       .  S
C495        C498   1.408       .  A
C495        C502   1.410       .  A
C496        N513   1.157       .  T
C497        N515   1.157       .  T
C498        C499   1.406       .  A
C498        C503   1.451       .  S
C499        C500   1.414       .  A
C499        C505   1.452       .  S
C500        C501   1.412       .  A
C501        C502   1.406       .  A
C501        C504   1.451       .  S
C502        C506   1.451       .  S
C503        N510   1.157       .  T
C504        N511   1.157       .  T
C505        N509   1.157       .  T
C506        N512   1.157       .  T
C507        N516   1.157       .  T
C508        N514   1.157       .  T
C517        C518   1.411       .  A
C517        C522   1.414       .  A
C517        C535   1.450       .  S
C518        C523   1.504       .  S
C518        C519   1.414       .  A
C519        C520   1.414       .  A
C519        C524   1.450       .  S
C520        C521   1.413       .  A
C520        C536   1.451       .  S
C521        C522   1.416       .  A
C522        C525   1.451       .  S
C523        C526   1.413       .  A
C523        C530   1.412       .  A
C524        N541   1.157       .  T
C525        N543   1.157       .  T
C526        C527   1.414       .  A
C526        C531   1.450       .  S
C527        C528   1.414       .  A
C527        C533   1.451       .  S
C528        C529   1.412       .  A
C529        C530   1.413       .  A
C529        C532   1.450       .  S
C530        C534   1.450       .  S
C531        N538   1.157       .  T
C532        N539   1.157       .  T
C533        N537   1.157       .  T
C534        N540   1.157       .  T
C535        N544   1.157       .  T
C536        N542   1.157       .  T
C545        C546   1.413       .  A
C545        C550   1.412       .  A
C545        C563   1.451       .  S
C546        C551   1.504       .  S
C546        C547   1.414       .  A
C547        C548   1.414       .  A
C547        C552   1.450       .  S
C548        C549   1.414       .  A
C548        C564   1.451       .  S
C549        C550   1.414       .  A
C550        C553   1.451       .  S
C551        C554   1.415       .  A
C551        C558   1.413       .  A
C552        N569   1.157       .  T
C553        N571   1.157       .  T
C554        C555   1.416       .  A
C554        C559   1.450       .  S
C555        C556   1.413       .  A
C555        C561   1.450       .  S
C556        C557   1.415       .  A
C557        C558   1.410       .  A
C557        C560   1.452       .  S
C558        C562   1.452       .  S
C559        N566   1.157       .  T
C560        N567   1.157       .  T
C561        N565   1.157       .  T
C562        N568   1.157       .  T
C563        N572   1.157       .  T
C564        N570   1.157       .  T
C573        C574   1.408       .  A
C573        C578   1.408       .  A
C573        C591   1.451       .  S
C574        C579   1.488       .  S
C574        C575   1.411       .  A
C575        C576   1.408       .  A
C575        C580   1.451       .  S
C576        C577   1.413       .  A
C576        C592   1.451       .  S
C577        C578   1.416       .  A
C578        C581   1.452       .  S
C579        C582   1.408       .  A
C579        C586   1.409       .  A
C580        N597   1.157       .  T
C581        N599   1.157       .  T
C582        C583   1.406       .  A
C582        C587   1.451       .  S
C583        C584   1.414       .  A
C583        C589   1.452       .  S
C584        C585   1.416       .  A
C585        C586   1.409       .  A
C585        C588   1.451       .  S
C586        C590   1.451       .  S
C587        N594   1.157       .  T
C588        N595   1.157       .  T
C589        N593   1.157       .  T
C590        N596   1.157       .  T
C591        N600   1.157       .  T
C592        N598   1.157       .  T
C601        C602   1.413       .  A
C601        C606   1.409       .  A
C601        C619   1.451       .  S
C602        C607   1.497       .  S
C602        C603   1.413       .  A
C603        C604   1.409       .  A
C603        C608   1.451       .  S
C604        C605   1.412       .  A
C604        C620   1.451       .  S
C605        C606   1.412       .  A
C606        C609   1.451       .  S
C607        C610   1.414       .  A
C607        C614   1.413       .  A
C608        N625   1.157       .  T
C609        N627   1.157       .  T
C610        C611   1.408       .  A
C610        C615   1.452       .  S
C611        C612   1.412       .  A
C611        C617   1.452       .  S
C612        C613   1.412       .  A
C613        C614   1.410       .  A
C613        C616   1.452       .  S
C614        C618   1.451       .  S
C615        N622   1.157       .  T
C616        N623   1.157       .  T
C617        N621   1.157       .  T
C618        N624   1.157       .  T
C619        N628   1.157       .  T
C620        N626   1.157       .  T
C629        C630   1.410       .  A
C629        C634   1.410       .  A
C629        C647   1.451       .  S
C630        C635   1.493       .  S
C630        C631   1.410       .  A
C631        C632   1.408       .  A
C631        C636   1.452       .  S
C632        C633   1.415       .  A
C632        C648   1.451       .  S
C633        C634   1.416       .  A
C634        C637   1.451       .  S
C635        C638   1.410       .  A
C635        C642   1.409       .  A
C636        N653   1.157       .  T
C637        N655   1.157       .  T
C638        C639   1.409       .  A
C638        C643   1.451       .  S
C639        C640   1.416       .  A
C639        C645   1.451       .  S
C640        C641   1.420       .  A
C641        C642   1.409       .  A
C641        C644   1.453       .  S
C642        C646   1.452       .  S
C643        N650   1.157       .  T
C644        N651   1.158       .  T
C645        N649   1.157       .  T
C646        N652   1.157       .  T
C647        N656   1.157       .  T
C648        N654   1.157   1_655  T
C657        C658   1.412       .  A
C657        C662   1.418       .  A
C657        C675   1.449       .  S
C658        C663   1.508       .  S
C658        C659   1.410       .  A
C659        C660   1.413       .  A
C659        C664   1.452       .  S
C660        C661   1.422       .  A
C660        C676   1.452       .  S
C661        C662   1.418       .  A
C662        C665   1.450       .  S
C663        C666   1.407       .  A
C663        C670   1.408       .  A
C664        N681   1.157       .  T
C665        N683   1.157       .  T
C666        C667   1.416       .  A
C666        C671   1.452       .  S
C667        C668   1.430       .  A
C667        C673   1.451       .  S
C668        C669   1.429       .  A
C669        C670   1.419       .  A
C669        C672   1.451       .  S
C670        C674   1.451       .  S
C671        N678   1.157       .  T
C672        N679   1.158       .  T
C673        N677   1.158       .  T
C674        N680   1.157       .  T
C675        N684   1.157       .  T
C676        N682   1.158       .  T
C685        C686   1.412       .  A
C685        C690   1.409       .  A
C685        C703   1.451       .  S
C686        C691   1.495       .  S
C686        C687   1.411       .  A
C687        C688   1.412       .  A
C687        C692   1.450       .  S
C688        C689   1.413       .  A
C688        C704   1.451       .  S
C689        C690   1.411       .  A
C690        C693   1.451       .  S
C691        C694   1.408       .  A
C691        C698   1.408       .  A
C692        N709   1.157       .  T
C693        N711   1.157       .  T
C694        C695   1.413       .  A
C694        C699   1.451       .  S
C695        C696   1.423       .  A
C695        C701   1.452       .  S
C696        C697   1.420       .  A
C697        C698   1.409       .  A
C697        C700   1.451       .  S
C698        C702   1.452       .  S
C699        N706   1.157       .  T
C700        N707   1.157       .  T
C701        N705   1.158       .  T
C702        N708   1.157       .  T
C703        N712   1.157       .  T
C704        N710   1.157   1_545  T
C713        C714   1.411       .  A
C713        C718   1.407       .  A
C713        C731   1.451       .  S
C714        C719   1.484       .  S
C714        C715   1.406       .  A
C715        C716   1.404       .  A
C715        C720   1.451       .  S
C716        C717   1.417       .  A
C716        C732   1.452       .  S
C717        C718   1.412       .  A
C718        C721   1.451       .  S
C719        C722   1.411       .  A
C719        C726   1.407       .  A
C720        N737   1.157       .  T
C721        N739   1.157       .  T
C722        C723   1.405       .  A
C722        C727   1.453       .  S
C723        C724   1.414       .  A
C723        C729   1.452       .  S
C724        C725   1.415       .  A
C725        C726   1.407       .  A
C725        C728   1.451       .  S
C726        C730   1.450       .  S
C727        N734   1.157       .  T
C728        N735   1.157       .  T
C729        N733   1.157       .  T
C730        N736   1.157       .  T
C731        N740   1.157       .  T
C732        N738   1.157       .  T
C741        C742   1.407       .  A
C741        C746   1.400       .  A
C741        C759   1.452       .  S
C742        C747   1.476       .  S
C742        C743   1.409       .  A
C743        C744   1.405       .  A
C743        C748   1.451       .  S
C744        C745   1.409       .  A
C744        C760   1.450       .  S
C745        C746   1.411       .  A
C746        C749   1.452       .  S
C747        C750   1.408       .  A
C747        C754   1.406       .  A
C748        N765   1.157       .  T
C749        N767   1.157       .  T
C750        C751   1.403       .  A
C750        C755   1.452       .  S
C751        C752   1.414       .  A
C751        C757   1.452       .  S
C752        C753   1.416       .  A
C753        C754   1.402       .  A
C753        C756   1.453       .  S
C754        C758   1.452       .  S
C755        N762   1.157       .  T
C756        N763   1.157       .  T
C757        N761   1.157       .  T
C758        N764   1.157       .  T
C759        N768   1.157       .  T
C760        N766   1.157       .  T
C769        C770   1.411       .  A
C769        C774   1.414       .  A
C769        C787   1.451       .  S
C770        C775   1.506       .  S
C770        C771   1.411       .  A
C771        C772   1.415       .  A
C771        C776   1.451       .  S
C772        C773   1.420       .  A
C772        C788   1.451       .  S
C773        C774   1.420       .  A
C774        C777   1.451       .  S
C775        C778   1.413       .  A
C775        C782   1.413       .  A
C776        N793   1.157       .  T
C777        N795   1.157       .  T
C778        C779   1.413       .  A
C778        C783   1.451       .  S
C779        C780   1.415       .  A
C779        C785   1.452       .  S
C780        C781   1.414       .  A
C781        C782   1.414       .  A
C781        C784   1.451       .  S
C782        C786   1.450       .  S
C783        N790   1.157       .  T
C784        N791   1.157       .  T
C785        N789   1.157       .  T
C786        N792   1.157       .  T
C787        N796   1.157       .  T
C788        N794   1.157       .  T
C797        C798   1.414       .  A
C797        C802   1.418       .  A
C797        C815   1.449       .  S
C798        C803   1.508       .  S
C798        C799   1.411       .  A
C799        C800   1.413       .  A
C799        C804   1.451       .  S
C800        C801   1.416       .  A
C800        C816   1.451       .  S
C801        C802   1.413       .  A
C802        C805   1.449       .  S
C803        C806   1.413       .  A
C803        C810   1.411       .  A
C804        N821   1.157       .  T
C805        N823   1.157       .  T
C806        C807   1.416       .  A
C806        C811   1.450       .  S
C807        C808   1.417       .  A
C807        C813   1.451       .  S
C808        C809   1.419       .  A
C809        C810   1.415       .  A
C809        C812   1.451       .  S
C810        C814   1.450       .  S
C811        N818   1.157       .  T
C812        N819   1.157       .  T
C813        N817   1.157       .  T
C814        N820   1.157       .  T
C815        N824   1.157       .  T
C816        N822   1.157       .  T
C825        C826   1.409       .  A
C825        C830   1.403       .  A
C825        C843   1.452       .  S
C826        C831   1.482       .  S
C826        C827   1.408       .  A
C827        C828   1.405       .  A
C827        C832   1.451       .  S
C828        C829   1.414       .  A
C828        C844   1.451       .  S
C829        C830   1.415       .  A
C830        C833   1.453       .  S
C831        C834   1.410       .  A
C831        C838   1.408       .  A
C832        N849   1.157       .  T
C833        N851   1.158       .  T
C834        C835   1.402       .  A
C834        C839   1.452       .  S
C835        C836   1.413       .  A
C835        C841   1.453       .  S
C836        C837   1.414       .  A
C837        C838   1.406       .  A
C837        C840   1.452       .  S
C838        C842   1.451       .  S
C839        N846   1.157       .  T
C840        N847   1.157       .  T
C841        N845   1.158       .  T
C842        N848   1.157       .  T
C843        N852   1.157       .  T
C844        N850   1.157       .  T
C853        C854   1.411       .  A
C853        C858   1.409       .  A
C853        C871   1.450       .  S
C854        C859   1.493       .  S
C854        C855   1.411       .  A
C855        C856   1.409       .  A
C855        C860   1.451       .  S
C856        C857   1.411       .  A
C856        C872   1.450       .  S
C857        C858   1.411       .  A
C858        C861   1.450       .  S
C859        C862   1.407       .  A
C859        C866   1.408       .  A
C860        N877   1.157       .  T
C861        N879   1.157   1_655  T
C862        C863   1.410       .  A
C862        C867   1.452       .  S
C863        C864   1.423       .  A
C863        C869   1.451       .  S
C864        C865   1.419       .  A
C865        C866   1.410       .  A
C865        C868   1.451       .  S
C866        C870   1.451       .  S
C867        N874   1.157       .  T
C868        N875   1.157       .  T
C869        N873   1.158       .  T
C870        N876   1.157       .  T
C871        N880   1.157       .  T
C872        N878   1.157       .  T
C881        C882   1.412       .  A
C881        C886   1.411       .  A
C881        C899   1.452       .  S
C882        C887   1.506       .  S
C882        C883   1.413       .  A
C883        C884   1.416       .  A
C883        C888   1.450       .  S
C884        C885   1.416       .  A
C884        C900   1.450       .  S
C885        C886   1.418       .  A
C886        C889   1.450       .  S
C887        C890   1.414       .  A
C887        C894   1.413       .  A
C888        N905   1.157       .  T
C889        N907   1.157       .  T
C890        C891   1.413       .  A
C890        C895   1.451       .  S
C891        C892   1.414       .  A
C891        C897   1.451       .  S
C892        C893   1.413       .  A
C893        C894   1.413       .  A
C893        C896   1.451       .  S
C894        C898   1.450       .  S
C895        N902   1.157       .  T
C896        N903   1.157       .  T
C897        N901   1.157       .  T
C898        N904   1.157       .  T
C899        N908   1.157       .  T
C900        N906   1.157       .  T
C909        C910   1.415       .  A
C909        C914   1.415       .  A
C909        C927   1.450       .  S
C910        C915   1.507       .  S
C910        C911   1.416       .  A
C911        C912   1.412       .  A
C911        C916   1.451       .  S
C912        C913   1.412       .  A
C912        C928   1.451       .  S
C913        C914   1.413       .  A
C914        C917   1.451       .  S
C915        C918   1.412       .  A
C915        C922   1.415       .  A
C916        N933   1.157       .  T
C917        N935   1.157       .  T
C918        C919   1.410       .  A
C918        C923   1.452       .  S
C919        C920   1.419       .  A
C919        C925   1.453       .  S
C920        C921   1.414       .  A
C921        C922   1.417       .  A
C921        C924   1.450       .  S
C922        C926   1.450       .  S
C923        N930   1.157       .  T
C924        N931   1.157       .  T
C925        N929   1.157       .  T
C926        N932   1.157       .  T
C927        N936   1.157       .  T
C928        N934   1.157   1_545  T
C937        C938   1.409       .  A
C937        C942   1.407       .  A
C937        C955   1.450       .  S
C938        C943   1.485       .  S
C938        C939   1.409       .  A
C939        C940   1.406       .  A
C939        C944   1.452       .  S
C940        C941   1.415       .  A
C940        C956   1.453       .  S
C941        C942   1.413       .  A
C942        C945   1.451       .  S
C943        C946   1.409       .  A
C943        C950   1.408       .  A
C944        N961   1.157       .  T
C945        N963   1.157       .  T
C946        C947   1.407       .  A
C946        C951   1.451       .  S
C947        C948   1.415       .  A
C947        C953   1.452       .  S
C948        C949   1.414       .  A
C949        C950   1.406       .  A
C949        C952   1.452       .  S
C950        C954   1.451       .  S
C951        N958   1.157       .  T
C952        N959   1.157   1_655  T
C953        N957   1.157       .  T
C954        N960   1.157       .  T
C955        N964   1.157       .  T
C956        N962   1.158       .  T
C965        C966   1.409       .  A
C965        C970   1.409       .  A
C965        C983   1.452       .  S
C966        C971   1.501       .  S
C966        C967   1.413       .  A
C967        C968   1.416       .  A
C967        C972   1.449       .  S
C968        C969   1.413       .  A
C968        C984   1.450       .  S
C969        C970   1.417       .  A
C970        C973   1.452       .  S
C971        C974   1.409       .  A
C971        C978   1.410       .  A
C972        N989   1.157       .  T
C973        N991   1.157       .  T
C974        C975   1.413       .  A
C974        C979   1.451       .  S
C975        C976   1.419       .  A
C975        C981   1.449       .  S
C976        C977   1.420       .  A
C977        C978   1.414       .  A
C977        C980   1.451       .  S
C978        C982   1.451       .  S
C979        N986   1.157       .  T
C980        N987   1.157       .  T
C981        N985   1.157       .  T
C982        N988   1.157       .  T
C983        N992   1.157       .  T
C984        N990   1.157       .  T
C993        C994   1.405       .  A
C993        C998   1.405       .  A
C993       C1011   1.454       .  S
C994        C999   1.483       .  S
C994        C995   1.404       .  A
C995        C996   1.408       .  A
C995       C1000   1.452       .  S
C996        C997   1.425       .  A
C996       C1012   1.451       .  S
C997        C998   1.423       .  A
C998       C1001   1.452       .  S
C999       C1002   1.409       .  A
C999       C1006   1.408       .  A
C1000      N1017   1.157       .  T
C1001      N1019   1.157       .  T
C1002      C1003   1.404       .  A
C1002      C1007   1.452       .  S
C1003      C1004   1.413       .  A
C1003      C1009   1.453       .  S
C1004      C1005   1.412       .  A
C1005      C1006   1.406       .  A
C1005      C1008   1.451       .  S
C1006      C1010   1.450       .  S
C1007      N1014   1.157       .  T
C1008      N1015   1.157       .  T
C1009      N1013   1.157       .  T
C1010      N1016   1.157       .  T
C1011      N1020   1.157       .  T
C1012      N1018   1.158       .  T
C1021      C1022   1.410       .  A
C1021      C1026   1.402       .  A
C1021      C1039   1.452       .  S
C1022      C1027   1.480       .  S
C1022      C1023   1.406       .  A
C1023      C1024   1.407       .  A
C1023      C1028   1.450       .  S
C1024      C1025   1.416       .  A
C1024      C1040   1.452       .  S
C1025      C1026   1.410       .  A
C1026      C1029   1.450       .  S
C1027      C1030   1.408       .  A
C1027      C1034   1.407       .  A
C1028      N1045   1.157       .  T
C1029      N1047   1.157       .  T
C1030      C1031   1.404       .  A
C1030      C1035   1.452       .  S
C1031      C1032   1.415       .  A
C1031      C1037   1.452       .  S
C1032      C1033   1.411       .  A
C1033      C1034   1.405       .  A
C1033      C1036   1.450       .  S
C1034      C1038   1.450       .  S
C1035      N1042   1.157       .  T
C1036      N1043   1.157       .  T
C1037      N1041   1.157       .  T
C1038      N1044   1.157       .  T
C1039      N1048   1.157       .  T
C1040      N1046   1.157       .  T
C1049      C1050   1.409       .  A
C1049      C1054   1.408       .  A
C1049      C1067   1.450       .  S
C1050      C1055   1.486       .  S
C1050      C1051   1.411       .  A
C1051      C1052   1.405       .  A
C1051      C1056   1.452       .  S
C1052      C1053   1.411       .  A
C1052      C1068   1.452       .  S
C1053      C1054   1.413       .  A
C1054      C1057   1.452       .  S
C1055      C1058   1.406       .  A
C1055      C1062   1.408       .  A
C1056      N1073   1.157       .  T
C1057      N1075   1.157       .  T
C1058      C1059   1.407       .  A
C1058      C1063   1.451       .  S
C1059      C1060   1.420       .  A
C1059      C1065   1.452       .  S
C1060      C1061   1.417       .  A
C1061      C1062   1.408       .  A
C1061      C1064   1.448       .  S
C1062      C1066   1.452       .  S
C1063      N1070   1.157       .  T
C1064      N1071   1.156       .  T
C1065      N1069   1.157       .  T
C1066      N1072   1.157       .  T
C1067      N1076   1.157       .  T
C1068      N1074   1.157       .  T
C1077      C1078   1.409       .  A
C1077      C1082   1.409       .  A
C1077      C1095   1.451       .  S
C1078      C1083   1.488       .  S
C1078      C1079   1.406       .  A
C1079      C1080   1.406       .  A
C1079      C1084   1.454       .  S
C1080      C1081   1.426       .  A
C1080      C1096   1.453       .  S
C1081      C1082   1.418       .  A
C1082      C1085   1.451       .  S
C1083      C1086   1.413       .  A
C1083      C1090   1.410       .  A
C1084      N1101   1.157       .  T
C1085      N1103   1.158       .  T
C1086      C1087   1.405       .  A
C1086      C1091   1.452       .  S
C1087      C1088   1.408       .  A
C1087      C1093   1.452       .  S
C1088      C1089   1.410       .  A
C1089      C1090   1.407       .  A
C1089      C1092   1.451       .  S
C1090      C1094   1.450       .  S
C1091      N1098   1.157       .  T
C1092      N1099   1.157       .  T
C1093      N1097   1.157       .  T
C1094      N1100   1.157       .  T
C1095      N1104   1.157       .  T
C1096      N1102   1.158       .  T
C1105      C1106   1.411       .  A
C1105      C1110   1.408       .  A
C1105      C1123   1.451       .  S
C1106      C1111   1.491       .  S
C1106      C1107   1.410       .  A
C1107      C1108   1.405       .  A
C1107      C1112   1.452       .  S
C1108      C1109   1.418       .  A
C1108      C1124   1.453       .  S
C1109      C1110   1.415       .  A
C1110      C1113   1.451       .  S
C1111      C1114   1.407       .  A
C1111      C1118   1.406       .  A
C1112      N1129   1.157       .  T
C1113      N1131   1.157       .  T
C1114      C1115   1.410       .  A
C1114      C1119   1.453       .  S
C1115      C1116   1.426       .  A
C1115      C1121   1.452       .  S
C1116      C1117   1.426       .  A
C1117      C1118   1.407       .  A
C1117      C1120   1.452       .  S
C1118      C1122   1.454       .  S
C1119      N1126   1.157       .  T
C1120      N1127   1.158       .  T
C1121      N1125   1.158       .  T
C1122      N1128   1.157       .  T
C1123      N1132   1.157       .  T
C1124      N1130   1.158       .  T
C1133      C1134   1.408       .  A
C1133      C1138   1.403       .  A
C1133      C1151   1.452       .  S
C1134      C1139   1.482       .  S
C1134      C1135   1.410       .  A
C1135      C1136   1.406       .  A
C1135      C1140   1.451       .  S
C1136      C1137   1.411       .  A
C1136      C1152   1.451       .  S
C1137      C1138   1.414       .  A
C1138      C1141   1.453       .  S
C1139      C1142   1.409       .  A
C1139      C1146   1.409       .  A
C1140      N1157   1.157       .  T
C1141      N1159   1.157       .  T
C1142      C1143   1.404       .  A
C1142      C1147   1.452       .  S
C1143      C1144   1.413       .  A
C1143      C1149   1.453       .  S
C1144      C1145   1.412       .  A
C1145      C1146   1.404       .  A
C1145      C1148   1.452       .  S
C1146      C1150   1.451       .  S
C1147      N1154   1.157       .  T
C1148      N1155   1.157       .  T
C1149      N1153   1.157   1_554  T
C1150      N1156   1.157       .  T
C1151      N1160   1.157       .  T
C1152      N1158   1.157       .  T
C1161      C1162   1.409       .  A
C1161      C1166   1.409       .  A
C1161      C1179   1.451       .  S
C1162      C1167   1.489       .  S
C1162      C1163   1.410       .  A
C1163      C1164   1.407       .  A
C1163      C1168   1.452       .  S
C1164      C1165   1.411       .  A
C1164      C1180   1.449       .  S
C1165      C1166   1.412       .  A
C1166      C1169   1.450       .  S
C1167      C1170   1.410       .  A
C1167      C1174   1.409       .  A
C1168      N1185   1.157       .  T
C1169      N1187   1.157   1_554  T
C1170      C1171   1.408       .  A
C1170      C1175   1.451       .  S
C1171      C1172   1.415       .  A
C1171      C1177   1.452       .  S
C1172      C1173   1.414       .  A
C1173      C1174   1.408       .  A
C1173      C1176   1.452       .  S
C1174      C1178   1.451       .  S
C1175      N1182   1.157       .  T
C1176      N1183   1.157       .  T
C1177      N1181   1.157       .  T
C1178      N1184   1.157       .  T
C1179      N1188   1.157       .  T
C1180      N1186   1.156       .  T
C1189      C1190   1.406       .  A
C1189      C1194   1.415       .  A
C1189      C1207   1.453       .  S
C1190      C1195   1.507       .  S
C1190      C1191   1.409       .  A
C1191      C1192   1.419       .  A
C1191      C1196   1.450       .  S
C1192      C1193   1.428       .  A
C1192      C1208   1.451       .  S
C1193      C1194   1.433       .  A
C1194      C1197   1.452       .  S
C1195      C1198   1.410       .  A
C1195      C1202   1.412       .  A
C1196      N1213   1.157       .  T
C1197      N1215   1.158       .  T
C1198      C1199   1.414       .  A
C1198      C1203   1.450       .  S
C1199      C1200   1.418       .  A
C1199      C1205   1.451       .  S
C1200      C1201   1.419       .  A
C1201      C1202   1.417       .  A
C1201      C1204   1.450       .  S
C1202      C1206   1.451       .  S
C1203      N1210   1.157       .  T
C1204      N1211   1.158       .  T
C1205      N1209   1.157       .  T
C1206      N1212   1.157       .  T
C1207      N1216   1.157       .  T
C1208      N1214   1.158       .  T
C1217      C1218   1.410       .  A
C1217      C1222   1.403       .  A
C1217      C1235   1.451       .  S
C1218      C1223   1.478       .  S
C1218      C1219   1.408       .  A
C1219      C1220   1.402       .  A
C1219      C1224   1.452       .  S
C1220      C1221   1.412       .  A
C1220      C1236   1.452       .  S
C1221      C1222   1.409       .  A
C1222      C1225   1.451       .  S
C1223      C1226   1.411       .  A
C1223      C1230   1.407       .  A
C1224      N1241   1.157       .  T
C1225      N1243   1.157       .  T
C1226      C1227   1.403       .  A
C1226      C1231   1.452       .  S
C1227      C1228   1.409       .  A
C1227      C1233   1.452       .  S
C1228      C1229   1.412       .  A
C1229      C1230   1.403       .  A
C1229      C1232   1.452       .  S
C1230      C1234   1.451       .  S
C1231      N1238   1.157       .  T
C1232      N1239   1.157       .  T
C1233      N1237   1.157       .  T
C1234      N1240   1.157       .  T
C1235      N1244   1.157       .  T
C1236      N1242   1.157       .  T
C1245      C1246   1.411       .  A
C1245      C1250   1.410       .  A
C1245      C1263   1.451       .  S
C1246      C1251   1.498       .  S
C1246      C1247   1.411       .  A
C1247      C1248   1.412       .  A
C1247      C1252   1.450       .  S
C1248      C1249   1.415       .  A
C1248      C1264   1.451       .  S
C1249      C1250   1.416       .  A
C1250      C1253   1.452       .  S
C1251      C1254   1.411       .  A
C1251      C1258   1.412       .  A
C1252      N1269   1.157       .  T
C1253      N1271   1.157       .  T
C1254      C1255   1.412       .  A
C1254      C1259   1.450       .  S
C1255      C1256   1.414       .  A
C1255      C1261   1.451       .  S
C1256      C1257   1.415       .  A
C1257      C1258   1.410       .  A
C1257      C1260   1.452       .  S
C1258      C1262   1.451       .  S
C1259      N1266   1.157       .  T
C1260      N1267   1.157       .  T
C1261      N1265   1.157       .  T
C1262      N1268   1.157       .  T
C1263      N1272   1.157       .  T
C1264      N1270   1.157       .  T
C1273      C1274   1.409       .  A
C1273      C1278   1.404       .  A
C1273      C1291   1.451       .  S
C1274      C1279   1.479       .  S
C1274      C1275   1.408       .  A
C1275      C1276   1.402       .  A
C1275      C1280   1.452       .  S
C1276      C1277   1.412       .  A
C1276      C1292   1.452       .  S
C1277      C1278   1.411       .  A
C1278      C1281   1.451       .  S
C1279      C1282   1.405       .  A
C1279      C1286   1.404       .  A
C1280      N1297   1.157       .  T
C1281      N1299   1.157       .  T
C1282      C1283   1.405       .  A
C1282      C1287   1.453       .  S
C1283      C1284   1.423       .  A
C1283      C1289   1.453       .  S
C1284      C1285   1.424       .  A
C1285      C1286   1.404       .  A
C1285      C1288   1.452       .  S
C1286      C1290   1.453       .  S
C1287      N1294   1.157       .  T
C1288      N1295   1.158   1_554  T
C1289      N1293   1.158       .  T
C1290      N1296   1.157       .  T
C1291      N1300   1.157       .  T
C1292      N1298   1.157       .  T
C1301      C1302   1.413       .  A
C1301      C1306   1.414       .  A
C1301      C1319   1.450       .  S
C1302      C1307   1.505       .  S
C1302      C1303   1.413       .  A
C1303      C1304   1.415       .  A
C1303      C1308   1.450       .  S
C1304      C1305   1.414       .  A
C1304      C1320   1.450   1_554  S
C1305      C1306   1.415       .  A
C1306      C1309   1.452       .  S
C1307      C1310   1.411       .  A
C1307      C1314   1.411       .  A
C1308      N1325   1.157       .  T
C1309      N1327   1.157   1_565  T
C1310      C1311   1.415       .  A
C1310      C1315   1.450       .  S
C1311      C1312   1.419       .  A
C1311      C1317   1.451       .  S
C1312      C1313   1.420       .  A
C1313      C1314   1.414       .  A
C1313      C1316   1.452       .  S
C1314      C1318   1.451       .  S
C1315      N1322   1.157       .  T
C1316      N1323   1.157       .  T
C1317      N1321   1.157       .  T
C1318      N1324   1.157       .  T
C1319      N1328   1.157       .  T
C1320      N1326   1.157       .  T
C1329      C1330   1.411       .  A
C1329      C1334   1.414       .  A
C1329      C1347   1.450       .  S
C1330      C1335   1.500       .  S
C1330      C1331   1.409       .  A
C1331      C1332   1.412       .  A
C1331      C1336   1.451       .  S
C1332      C1333   1.418       .  A
C1332      C1348   1.451       .  S
C1333      C1334   1.417       .  A
C1334      C1337   1.451       .  S
C1335      C1338   1.410       .  A
C1335      C1342   1.410       .  A
C1336      N1353   1.157       .  T
C1337      N1355   1.157       .  T
C1338      C1339   1.413       .  A
C1338      C1343   1.450       .  S
C1339      C1340   1.417       .  A
C1339      C1345   1.451       .  S
C1340      C1341   1.418       .  A
C1341      C1342   1.412       .  A
C1341      C1344   1.451       .  S
C1342      C1346   1.451       .  S
C1343      N1350   1.157       .  T
C1344      N1351   1.157       .  T
C1345      N1349   1.157       .  T
C1346      N1352   1.157       .  T
C1347      N1356   1.157       .  T
C1348      N1354   1.157       .  T
C1357      C1358   1.411       .  A
C1357      C1362   1.415       .  A
C1357      C1375   1.450       .  S
C1358      C1363   1.501       .  S
C1358      C1359   1.409       .  A
C1359      C1360   1.412       .  A
C1359      C1364   1.451       .  S
C1360      C1361   1.421       .  A
C1360      C1376   1.452       .  S
C1361      C1362   1.417       .  A
C1362      C1365   1.451       .  S
C1363      C1366   1.412       .  A
C1363      C1370   1.412       .  A
C1364      N1381   1.157       .  T
C1365      N1383   1.157       .  T
C1366      C1367   1.412       .  A
C1366      C1371   1.450       .  S
C1367      C1368   1.412       .  A
C1367      C1373   1.450       .  S
C1368      C1369   1.413       .  A
C1369      C1370   1.414       .  A
C1369      C1372   1.450       .  S
C1370      C1374   1.450       .  S
C1371      N1378   1.157       .  T
C1372      N1379   1.157       .  T
C1373      N1377   1.157       .  T
C1374      N1380   1.157       .  T
C1375      N1384   1.157       .  T
C1376      N1382   1.158       .  T
C1385      C1386   1.410       .  A
C1385      C1390   1.405       .  A
C1385      C1403   1.452       .  S
C1386      C1391   1.489       .  S
C1386      C1387   1.410       .  A
C1387      C1388   1.409       .  A
C1387      C1392   1.451       .  S
C1388      C1389   1.414       .  A
C1388      C1404   1.451       .  S
C1389      C1390   1.414       .  A
C1390      C1393   1.452       .  S
C1391      C1394   1.411       .  A
C1391      C1398   1.410       .  A
C1392      N1409   1.157       .  T
C1393      N1411   1.157       .  T
C1394      C1395   1.407       .  A
C1394      C1399   1.451       .  S
C1395      C1396   1.413       .  A
C1395      C1401   1.451       .  S
C1396      C1397   1.413       .  A
C1397      C1398   1.407       .  A
C1397      C1400   1.452       .  S
C1398      C1402   1.451       .  S
C1399      N1406   1.157       .  T
C1400      N1407   1.157       .  T
C1401      N1405   1.157       .  T
C1402      N1408   1.157       .  T
C1403      N1412   1.157       .  T
C1404      N1410   1.157       .  T
C1413      C1414   1.410       .  A
C1413      C1418   1.412   1_554  A
C1413      C1431   1.451       .  S
C1414      C1419   1.501       .  S
C1414      C1415   1.411       .  A
C1415      C1416   1.414       .  A
C1415      C1420   1.451       .  S
C1416      C1417   1.419   1_554  A
C1416      C1432   1.451       .  S
C1417      C1418   1.418       .  A
C1418      C1421   1.451       .  S
C1419      C1422   1.413       .  A
C1419      C1426   1.410       .  A
C1420      N1437   1.157       .  T
C1421      N1439   1.157       .  T
C1422      C1423   1.416       .  A
C1422      C1427   1.449       .  S
C1423      C1424   1.413       .  A
C1423      C1429   1.449       .  S
C1424      C1425   1.417       .  A
C1425      C1426   1.409       .  A
C1425      C1428   1.453       .  S
C1426      C1430   1.452       .  S
C1427      N1434   1.157       .  T
C1428      N1435   1.157       .  T
C1429      N1433   1.157       .  T
C1430      N1436   1.157       .  T
C1431      N1440   1.157       .  T
C1432      N1438   1.157       .  T
C1441      C1442   1.412       .  A
C1441      C1446   1.414       .  A
C1441      C1459   1.450       .  S
C1442      C1447   1.505       .  S
C1442      C1443   1.412       .  A
C1443      C1444   1.414       .  A
C1443      C1448   1.450       .  S
C1444      C1445   1.415       .  A
C1444      C1460   1.451   1_554  S
C1445      C1446   1.415       .  A
C1446      C1449   1.449       .  S
C1447      C1450   1.411       .  A
C1447      C1454   1.412       .  A
C1448      N1465   1.157       .  T
C1449      N1467   1.157       .  T
C1450      C1451   1.415       .  A
C1450      C1455   1.450       .  S
C1451      C1452   1.419       .  A
C1451      C1457   1.451       .  S
C1452      C1453   1.415       .  A
C1453      C1454   1.414       .  A
C1453      C1456   1.449       .  S
C1454      C1458   1.450       .  S
C1455      N1462   1.157       .  T
C1456      N1463   1.157       .  T
C1457      N1461   1.157       .  T
C1458      N1464   1.157       .  T
C1459      N1468   1.157       .  T
C1460      N1466   1.157       .  T
C1469      C1470   1.406       .  A
C1469      C1474   1.405       .  A
C1469      C1487   1.452       .  S
C1470      C1475   1.484       .  S
C1470      C1471   1.411       .  A
C1471      C1472   1.408       .  A
C1471      C1476   1.451       .  S
C1472      C1473   1.412       .  A
C1472      C1488   1.451       .  S
C1473      C1474   1.417       .  A
C1474      C1477   1.452       .  S
C1475      C1478   1.408       .  A
C1475      C1482   1.409       .  A
C1476      N1493   1.157       .  T
C1477      N1495   1.157       .  T
C1478      C1479   1.404       .  A
C1478      C1483   1.451       .  S
C1479      C1480   1.415       .  A
C1479      C1485   1.452       .  S
C1480      C1481   1.415       .  A
C1481      C1482   1.407       .  A
C1481      C1484   1.451       .  S
C1482      C1486   1.451       .  S
C1483      N1490   1.157       .  T
C1484      N1491   1.157       .  T
C1485      N1489   1.157       .  T
C1486      N1492   1.157       .  T
C1487      N1496   1.157       .  T
C1488      N1494   1.157       .  T
C1497      C1498   1.408       .  A
C1497      C1502   1.409       .  A
C1497      C1515   1.451       .  S
C1498      C1503   1.486       .  S
C1498      C1499   1.408       .  A
C1499      C1500   1.406       .  A
C1499      C1504   1.453       .  S
C1500      C1501   1.419       .  A
C1500      C1516   1.452       .  S
C1501      C1502   1.415       .  A
C1502      C1505   1.450       .  S
C1503      C1506   1.412       .  A
C1503      C1510   1.409       .  A
C1504      N1521   1.157       .  T
C1505      N1523   1.157       .  T
C1506      C1507   1.404       .  A
C1506      C1511   1.451       .  S
C1507      C1508   1.409       .  A
C1507      C1513   1.452       .  S
C1508      C1509   1.412       .  A
C1509      C1510   1.407       .  A
C1509      C1512   1.451       .  S
C1510      C1514   1.450       .  S
C1511      N1518   1.157       .  T
C1512      N1519   1.157       .  T
C1513      N1517   1.157       .  T
C1514      N1520   1.157       .  T
C1515      N1524   1.157       .  T
C1516      N1522   1.158       .  T
C1525      C1526   1.412       .  A
C1525      C1530   1.413       .  A
C1525      C1543   1.450       .  S
C1526      C1531   1.496       .  S
C1526      C1527   1.410       .  A
C1527      C1528   1.408       .  A
C1527      C1532   1.452       .  S
C1528      C1529   1.417       .  A
C1528      C1544   1.452       .  S
C1529      C1530   1.414       .  A
C1530      C1533   1.451       .  S
C1531      C1534   1.409       .  A
C1531      C1538   1.414       .  A
C1532      N1549   1.157       .  T
C1533      N1551   1.157       .  T
C1534      C1535   1.408       .  A
C1534      C1539   1.451       .  S
C1535      C1536   1.415       .  A
C1535      C1541   1.452       .  S
C1536      C1537   1.412       .  A
C1537      C1538   1.412       .  A
C1537      C1540   1.450       .  S
C1538      C1542   1.451       .  S
C1539      N1546   1.157       .  T
C1540      N1547   1.157       .  T
C1541      N1545   1.157       .  T
C1542      N1548   1.157       .  T
C1543      N1552   1.157       .  T
C1544      N1550   1.157       .  T
C1553      C1554   1.411       .  A
C1553      C1558   1.408       .  A
C1553      C1571   1.451       .  S
C1554      C1559   1.488       .  S
C1554      C1555   1.409       .  A
C1555      C1556   1.405       .  A
C1555      C1560   1.452       .  S
C1556      C1557   1.414       .  A
C1556      C1572   1.453       .  S
C1557      C1558   1.411       .  A
C1558      C1561   1.450       .  S
C1559      C1562   1.405       .  A
C1559      C1566   1.405       .  A
C1560      N1577   1.157       .  T
C1561      N1579   1.157       .  T
C1562      C1563   1.407       .  A
C1562      C1567   1.454       .  S
C1563      C1564   1.426       .  A
C1563      C1569   1.451       .  S
C1564      C1565   1.426       .  A
C1565      C1566   1.409       .  A
C1565      C1568   1.452       .  S
C1566      C1570   1.452       .  S
C1567      N1574   1.157       .  T
C1568      N1575   1.158       .  T
C1569      N1573   1.157       .  T
C1570      N1576   1.157       .  T
C1571      N1580   1.157       .  T
C1572      N1578   1.157       .  T
C1581      C1582   1.407       .  A
C1581      C1586   1.405       .  A
C1581      C1599   1.452       .  S
C1582      C1587   1.482       .  S
C1582      C1583   1.407       .  A
C1583      C1584   1.406       .  A
C1583      C1588   1.451       .  S
C1584      C1585   1.416       .  A
C1584      C1600   1.451       .  S
C1585      C1586   1.417       .  A
C1586      C1589   1.453       .  S
C1587      C1590   1.409       .  A
C1587      C1594   1.408       .  A
C1588      N1605   1.157       .  T
C1589      N1607   1.157       .  T
C1590      C1591   1.406       .  A
C1590      C1595   1.451       .  S
C1591      C1592   1.410       .  A
C1591      C1597   1.450   1_554  S
C1592      C1593   1.413       .  A
C1593      C1594   1.404       .  A
C1593      C1596   1.452       .  S
C1594      C1598   1.452       .  S
C1595      N1602   1.157       .  T
C1596      N1603   1.157       .  T
C1597      N1601   1.157       .  T
C1598      N1604   1.157       .  T
C1599      N1608   1.157       .  T
C1600      N1606   1.157       .  T
C1609      C1610   1.410       .  A
C1609      C1614   1.408       .  A
C1609      C1627   1.451       .  S
C1610      C1615   1.491       .  S
C1610      C1611   1.410       .  A
C1611      C1612   1.407       .  A
C1611      C1616   1.452       .  S
C1612      C1613   1.416       .  A
C1612      C1628   1.452       .  S
C1613      C1614   1.416       .  A
C1614      C1617   1.451       .  S
C1615      C1618   1.412       .  A
C1615      C1622   1.411       .  A
C1616      N1633   1.157       .  T
C1617      N1635   1.157   1_455  T
C1618      C1619   1.405       .  A
C1618      C1623   1.452       .  S
C1619      C1620   1.412       .  A
C1619      C1625   1.453       .  S
C1620      C1621   1.412       .  A
C1621      C1622   1.409       .  A
C1621      C1624   1.451       .  S
C1622      C1626   1.450       .  S
C1623      N1630   1.157       .  T
C1624      N1631   1.157       .  T
C1625      N1629   1.157       .  T
C1626      N1632   1.157       .  T
C1627      N1636   1.157       .  T
C1628      N1634   1.157       .  T
C1637      C1638   1.412       .  A
C1637      C1642   1.408       .  A
C1637      C1655   1.452       .  S
C1638      C1643   1.499       .  S
C1638      C1639   1.414       .  A
C1639      C1640   1.413       .  A
C1639      C1644   1.450       .  S
C1640      C1641   1.411       .  A
C1640      C1656   1.450       .  S
C1641      C1642   1.413       .  A
C1642      C1645   1.452       .  S
C1643      C1646   1.412       .  A
C1643      C1650   1.411       .  A
C1644      N1661   1.157       .  T
C1645      N1663   1.157       .  T
C1646      C1647   1.411       .  A
C1646      C1651   1.451       .  S
C1647      C1648   1.416       .  A
C1647      C1653   1.452       .  S
C1648      C1649   1.417       .  A
C1649      C1650   1.411       .  A
C1649      C1652   1.451       .  S
C1650      C1654   1.452       .  S
C1651      N1658   1.157       .  T
C1652      N1659   1.157       .  T
C1653      N1657   1.157       .  T
C1654      N1660   1.157       .  T
C1655      N1664   1.157       .  T
C1656      N1662   1.157       .  T
C1665      C1666   1.411       .  A
C1665      C1670   1.407       .  A
C1665      C1683   1.451       .  S
C1666      C1671   1.488       .  S
C1666      C1667   1.410       .  A
C1667      C1668   1.407       .  A
C1667      C1672   1.451       .  S
C1668      C1669   1.411       .  A
C1668      C1684   1.451       .  S
C1669      C1670   1.412       .  A
C1670      C1673   1.452       .  S
C1671      C1674   1.410       .  A
C1671      C1678   1.409       .  A
C1672      N1689   1.157       .  T
C1673      N1691   1.157       .  T
C1674      C1675   1.406       .  A
C1674      C1679   1.451       .  S
C1675      C1676   1.413       .  A
C1675      C1681   1.452       .  S
C1676      C1677   1.416       .  A
C1677      C1678   1.407       .  A
C1677      C1680   1.453       .  S
C1678      C1682   1.451       .  S
C1679      N1686   1.157       .  T
C1680      N1687   1.158       .  T
C1681      N1685   1.157       .  T
C1682      N1688   1.157       .  T
C1683      N1692   1.157       .  T
C1684      N1690   1.157       .  T
C1693      C1694   1.409       .  A
C1693      C1698   1.408       .  A
C1693      C1711   1.452       .  S
C1694      C1699   1.497       .  S
C1694      C1695   1.411       .  A
C1695      C1696   1.413       .  A
C1695      C1700   1.451       .  S
C1696      C1697   1.420       .  A
C1696      C1712   1.451       .  S
C1697      C1698   1.419       .  A
C1698      C1701   1.452       .  S
C1699      C1702   1.413       .  A
C1699      C1706   1.412       .  A
C1700      N1717   1.157       .  T
C1701      N1719   1.157       .  T
C1702      C1703   1.410       .  A
C1702      C1707   1.451       .  S
C1703      C1704   1.412       .  A
C1703      C1709   1.451       .  S
C1704      C1705   1.414       .  A
C1705      C1706   1.410       .  A
C1705      C1708   1.451       .  S
C1706      C1710   1.451       .  S
C1707      N1714   1.157       .  T
C1708      N1715   1.157       .  T
C1709      N1713   1.157       .  T
C1710      N1716   1.157       .  T
C1711      N1720   1.157       .  T
C1712      N1718   1.157       .  T
