geometry optimzed in LAMMPS
_audit_creation_date              2020-12-01 
_audit_creation_method            'lammps2cif' 
_symmetry_space_group_name_H-M    'P1' 
_symmetry_Int_Tables_number       1 
_symmetry_cell_setting            triclinic 
loop_ 
_symmetry_equiv_pos_as_xyz 
  x,y,z 
_cell_length_a                    48.8796975 
_cell_length_b                    48.86365236859977 
_cell_length_c                    48.927997944693594 
_cell_angle_alpha                 90.04737953080165 
_cell_angle_beta                  90.0739440633633 
_cell_angle_gamma                 89.96658752911961 
loop_ 
_atom_site_label 
_atom_site_type_symbol 
_atom_site_fract_x 
_atom_site_fract_y 
_atom_site_fract_z 
_atom_site_charge 
O1          O  0.80628602  0.80961578  0.54499942    -0.80500
C2          C  0.70516104  0.81948358  0.60026945     0.98800
O3          O  0.72852291  0.82156778  0.61122293    -0.69700
O4          O  0.76142902  0.78111613  0.60079271    -0.73200
Al5        Al  0.76487597  0.81949274  0.59689520     1.49000
C6          C  0.76883422  0.76212884  0.58506918     0.94100
O7          O  0.73604859  0.78121377  0.52617266    -0.79500
O8          O  0.74991332  0.86081263  0.52614298    -0.73000
Al9        Al  0.77004861  0.79740359  0.53732160     1.90100
O10         O  0.71322224  0.81923500  0.52281718    -0.72100
O11         O  0.73274476  0.86998504  0.57783120    -0.71900
O12         O  0.70164675  0.82368282  0.57502694    -0.77600
O13         O  0.76990441  0.85817439  0.59908924    -0.75800
O14         O  0.75427629  0.81952440  0.56194159    -1.11900
O15         O  0.80304665  0.81703454  0.58917269    -0.71100
C16         C  0.81730864  0.81426629  0.56786273     0.99600
C17         C  0.71574838  0.79429299  0.51710892     0.96000
Al18       Al  0.72693958  0.84156971  0.55140372     1.55600
O19         O  0.77456762  0.76689778  0.56055073    -0.75800
C20         C  0.75126607  0.87545827  0.59489521     1.00100
C21         C  0.76363811  0.84902088  0.50750935     0.95000
O22         O  0.76912163  0.82376632  0.50887920    -0.81100
O23         O  0.82403175  0.97745756  0.28829194    -0.80500
C24         C  0.80981707  0.89542197  0.20772260     0.98800
O25         O  0.82847146  0.91348743  0.20760182    -0.69700
O26         O  0.81015810  0.96385877  0.21217286    -0.73200
Al27       Al  0.83650681  0.94345001  0.23213504     1.49000
C28         C  0.79299394  0.98098446  0.22093217     0.94100
O29         O  0.75866529  0.94134924  0.26678117    -0.79500
O30         O  0.81934185  0.90200656  0.30220892    -0.73000
Al31       Al  0.79287386  0.95773475  0.27631180     1.90100
O32         O  0.77122899  0.89920877  0.27507578    -0.72100
O33         O  0.84496264  0.88676732  0.25743172    -0.71900
O34         O  0.79707592  0.89005947  0.22941410    -0.77600
O35         O  0.86677170  0.92447765  0.24840656    -0.75800
O36         O  0.81271577  0.93313460  0.25791379    -1.11900
O37         O  0.84878449  0.97539952  0.25109175    -0.71100
C38         C  0.84376404  0.98601636  0.27408148     0.99600
C39         C  0.75279803  0.91684344  0.27205452     0.96000
Al40       Al  0.80859346  0.89768248  0.26530689     1.55600
O41         O  0.78708001  0.98193464  0.24603069    -0.75800
C42         C  0.86713736  0.89925145  0.25385063     1.00100
C43         C  0.80698575  0.91735263  0.31892181     0.95000
O44         O  0.79429393  0.93839350  0.31061486    -0.81100
O45         O  0.01099655  0.79950017  0.66451974    -0.80500
C46         C  0.10306717  0.72987417  0.67322857     0.98800
O47         O  0.08316730  0.72684439  0.65678065    -0.69700
O48         O  0.03255693  0.72712382  0.67445085    -0.73200
Al49       Al  0.05128694  0.74849691  0.64806121     1.49000
C50         C  0.01703624  0.73364639  0.69384771     0.94100
O51         O  0.05612827  0.78370419  0.72611069    -0.79500
O52         O  0.08430899  0.82410021  0.66180561    -0.73000
Al53       Al  0.03530435  0.79071890  0.69353081     1.90100
O54         O  0.09492632  0.79833974  0.70985539    -0.72100
O55         O  0.10490342  0.78009958  0.63585853    -0.71900
O56         O  0.10806201  0.75300096  0.68382197    -0.77600
O57         O  0.06828194  0.76423155  0.61662164    -0.75800
O58         O  0.06022018  0.77557012  0.67121286    -1.11900
O59         O  0.01802326  0.76549310  0.63583414    -0.71100
C60         C  0.00440138  0.78619788  0.64336038     0.99600
C61         C  0.07991356  0.79291442  0.72994925     0.96000
Al62       Al  0.09475697  0.78777286  0.67255408     1.55600
O63         O  0.01563938  0.75811116  0.70167871    -0.75800
C64         C  0.09278136  0.77181143  0.61481734     1.00100
C65         C  0.06816093  0.83840542  0.67623024     0.95000
O66         O  0.04979299  0.82711934  0.69054632    -0.81100
O67         O  0.19742926  0.17340810  0.47079317    -0.80500
C68         C  0.27627345  0.18924061  0.38754241     0.98800
O69         O  0.27730266  0.17127973  0.40609575    -0.69700
O70         O  0.27279137  0.19192122  0.45493640    -0.73200
Al71       Al  0.25396963  0.16349232  0.43662983     1.49000
C72         C  0.26368618  0.20835420  0.47252485     0.94100
O73         O  0.21611019  0.23944139  0.43351605    -0.79500
O74         O  0.18206475  0.17658275  0.39597876    -0.73000
Al75       Al  0.20785720  0.20500366  0.45069714     1.90100
O76         O  0.20764617  0.22576522  0.39175270    -0.72100
O77         O  0.22738594  0.15171356  0.38096401    -0.71900
O78         O  0.25401404  0.20106568  0.38198208    -0.77600
O79         O  0.23909570  0.13175232  0.41916384    -0.75800
O80         O  0.22671730  0.18551660  0.42614286    -1.11900
O81         O  0.23645120  0.15134774  0.46953905    -0.71100
C82         C  0.21291139  0.15476905  0.47971572     0.99600
C83         C  0.21078047  0.24476355  0.40884519     0.96000
Al84       Al  0.21853521  0.18846442  0.39079251     1.55600
O85         O  0.23822651  0.21219036  0.47482399    -0.75800
C86         C  0.23270083  0.13024257  0.39421031     1.00100
C87         C  0.16502704  0.18806635  0.41161288     0.95000
O88         O  0.17313603  0.20196115  0.43195304    -0.81100
O89         O  0.18262968  0.06218110  0.67656236    -0.80500
C90         C  0.17765397  0.11480075  0.78040519     0.98800
O91         O  0.17446892  0.12515293  0.75706001    -0.69700
O92         O  0.21495246  0.11594890  0.72380380    -0.73200
Al93       Al  0.17656855  0.11160108  0.72094370     1.49000
C94         C  0.23360754  0.10112676  0.71393227     0.94100
O95         O  0.21775504  0.03929834  0.74228872    -0.79500
O96         O  0.13848311  0.03875805  0.73745157    -0.73000
Al97       Al  0.19846508  0.05269817  0.71105800     1.90100
O98         O  0.18349144  0.03739441  0.77087452    -0.72100
O99         O  0.12895656  0.08932290  0.75450019    -0.71900
O100        O  0.17649710  0.08917447  0.78372327    -0.77600
O101        O  0.13762989  0.11215923  0.71723026    -0.75800
O102        O  0.17789904  0.07623866  0.73024455    -1.11900
O103        O  0.17862794  0.10614918  0.68276228    -0.71100
C104        C  0.17897166  0.08583160  0.66698027     0.99600
C105        C  0.20749359  0.03099700  0.76435935     0.96000
Al106      Al  0.15853906  0.06457747  0.75900269     1.55600
O107        O  0.22838947  0.07716287  0.70584806    -0.75800
C108        C  0.12162399  0.10631338  0.73659859     1.00100
C109        C  0.14826398  0.02140804  0.72089897     0.95000
O110        O  0.17256557  0.02373128  0.71247226    -0.81100
O111        O  0.93477484  0.18442308  0.30306510    -0.80500
C112        C  0.89097485  0.29097483  0.31210115     0.98800
O113        O  0.87771759  0.26889440  0.31352565    -0.69700
O114        O  0.88675924  0.23794002  0.27172891    -0.73200
Al115      Al  0.88817156  0.23161182  0.30955704     1.49000
C116        C  0.90128233  0.22798141  0.25302433     0.94100
O117        O  0.96334028  0.25122284  0.27505238    -0.79500
O118        O  0.95847754  0.23760697  0.35421949    -0.73000
Al119      Al  0.94737104  0.21899704  0.29057553     1.90100
O120        O  0.96702884  0.27405394  0.31317501    -0.72100
O121        O  0.90899608  0.25907189  0.36186133    -0.71900
O122        O  0.91639618  0.29168290  0.31667875    -0.77600
O123        O  0.88437560  0.22468121  0.34750543    -0.75800
O124        O  0.92405437  0.23780031  0.31156657    -1.11900
O125        O  0.89096333  0.19310087  0.30479448    -0.71100
C126        C  0.91044859  0.17616784  0.30493013     0.99600
C127        C  0.97372590  0.27057793  0.28861206     0.96000
Al128      Al  0.93663474  0.26332526  0.33453247     1.55600
O129        O  0.92427186  0.21755712  0.25865126    -0.75800
C130        C  0.89056114  0.24152539  0.36598180     1.00100
C131        C  0.97610025  0.22191097  0.34352435     0.95000
O132        O  0.97511389  0.21626815  0.31825397    -0.81100
O133        O  0.70222738  0.33074001  0.51974983    -0.80500
C134        C  0.77803047  0.31317213  0.60585321     0.98800
O135        O  0.77971535  0.33183063  0.58794607    -0.69700
O136        O  0.77698946  0.31359845  0.53756081    -0.73200
Al137      Al  0.75719955  0.34072819  0.55671970     1.49000
C138        C  0.76838665  0.29722118  0.51961702     0.94100
O139        O  0.71994022  0.26427676  0.55677217    -0.79500
O140        O  0.68524675  0.32674869  0.59430180    -0.73000
Al141      Al  0.71207922  0.29890885  0.54001966     1.90100
O142        O  0.70927740  0.27706804  0.59820342    -0.72100
O143        O  0.73018774  0.34961719  0.61208158    -0.71900
O144        O  0.75583019  0.30059207  0.60958420    -0.77600
O145        O  0.74100418  0.37157883  0.57498974    -0.75800
O146        O  0.73009234  0.31793473  0.56549550    -1.11900
O147        O  0.74067492  0.35358090  0.52365154    -0.71100
C148        C  0.71808911  0.34949343  0.51175511     0.99600
C149        C  0.71343836  0.25847183  0.58098137     0.96000
Al150      Al  0.72094943  0.31391311  0.60042511     1.55600
O151        O  0.74318237  0.29214327  0.51723497    -0.75800
C152        C  0.73502534  0.37180070  0.60009414     1.00100
C153        C  0.66854303  0.31513095  0.57843972     0.95000
O154        O  0.67693811  0.30167256  0.55790671    -0.81100
O155        O  0.68455865  0.44475082  0.31336854    -0.80500
C156        C  0.66522878  0.39466538  0.21035990     0.98800
O157        O  0.66468655  0.38283011  0.23333412    -0.69700
O158        O  0.70891318  0.38992907  0.26304790    -0.73200
Al159      Al  0.67096110  0.39540704  0.26989390     1.49000
C160        C  0.72888026  0.40413745  0.27111746     0.94100
O161        O  0.71105359  0.46613478  0.24263187    -0.79500
O162        O  0.63261646  0.46899809  0.26070903    -0.73000
Al163      Al  0.69582555  0.45379153  0.27695982     1.90100
O164        O  0.67200830  0.47130869  0.22183399    -0.72100
O165        O  0.61960844  0.41934497  0.24315354    -0.71900
O166        O  0.66307881  0.42033359  0.20857931    -0.77600
O167        O  0.63256039  0.39515833  0.27815426    -0.75800
O168        O  0.67190782  0.43094775  0.26113877    -1.11900
O169        O  0.67730078  0.40082720  0.30782335    -0.71100
C170        C  0.68082320  0.42116441  0.32331643     0.99600
C171        C  0.69712842  0.47646789  0.22345126     0.96000
Al172      Al  0.64883378  0.44381989  0.23592439     1.55600
O173        O  0.72519232  0.42844238  0.27885673    -0.75800
C174        C  0.61421351  0.40204290  0.26136688     1.00100
C175        C  0.64587941  0.48728664  0.27335143     0.95000
O176        O  0.67106755  0.48405797  0.27841463    -0.81100
O177        O  0.32146587  0.52974948  0.69905039    -0.80500
C178        C  0.31330578  0.61919668  0.77196372     0.98800
O179        O  0.32995031  0.59933252  0.77428053    -0.69700
O180        O  0.30977466  0.54962673  0.77216268    -0.73200
Al181      Al  0.33744049  0.56749165  0.75186656     1.49000
C182        C  0.29071547  0.53413084  0.76443626     0.94100
O183        O  0.26013462  0.57576182  0.71474903    -0.79500
O184        O  0.32671813  0.60380195  0.67825830    -0.73000
Al185      Al  0.29268927  0.55430392  0.70808419     1.90100
O186        O  0.27801496  0.61458401  0.70218914    -0.72100
O187        O  0.35108243  0.62145325  0.72303719    -0.71900
O188        O  0.30270401  0.62481633  0.74901597    -0.77600
O189        O  0.36968056  0.58341573  0.73617785    -0.75800
O190        O  0.31501863  0.57798142  0.72482605    -1.11900
O191        O  0.34835381  0.53388362  0.73470634    -0.71100
C192        C  0.34158614  0.52151874  0.71300170     0.99600
C193        C  0.25731703  0.59996808  0.70617110     0.96000
Al194      Al  0.31475300  0.61293534  0.71417467     1.55600
O195        O  0.28350438  0.53363209  0.73973998    -0.75800
C196        C  0.37204167  0.60801726  0.72900553     1.00100
C197        C  0.31341705  0.58788018  0.66274880     0.95000
O198        O  0.29760640  0.56991182  0.67260426    -0.81100
O199        O  0.43598729  0.32318972  0.68089721    -0.80500
C200        C  0.39335305  0.21535568  0.67485007     0.98800
O201        O  0.38011629  0.23738923  0.67211164    -0.69700
O202        O  0.38707038  0.27033765  0.71361608    -0.73200
Al203      Al  0.39011400  0.27497733  0.67540072     1.49000
C204        C  0.40056241  0.28277384  0.73172206     0.94100
O205        O  0.46359716  0.25791132  0.71456151    -0.79500
O206        O  0.46174696  0.26690348  0.63452675    -0.73000
Al207      Al  0.44821806  0.28922412  0.69616291     1.90100
O208        O  0.46952889  0.23320028  0.67774723    -0.72100
O209        O  0.41288960  0.24476786  0.62586049    -0.71900
O210        O  0.41908184  0.21485060  0.67298289    -0.77600
O211        O  0.38840271  0.28037889  0.63693097    -0.75800
O212        O  0.42599718  0.26897767  0.67540877    -1.11900
O213        O  0.39236422  0.31370373  0.67895802    -0.71100
C214        C  0.41145108  0.33105510  0.67878124     0.99600
C215        C  0.47533558  0.23844601  0.70227017     0.96000
Al216      Al  0.43964797  0.24227695  0.65455182     1.55600
O217        O  0.42367098  0.29283614  0.72623884    -0.75800
C218        C  0.39484787  0.26224040  0.61977026     1.00100
C219        C  0.47917505  0.28265361  0.64534564     0.95000
O220        O  0.47712568  0.29003093  0.67004529    -0.81100
O221        O  0.51536890  0.71206994  0.32007110    -0.80500
C222        C  0.60424405  0.78495811  0.30675582     0.98800
O223        O  0.58507053  0.78758170  0.32395572    -0.69700
O224        O  0.53523666  0.78748953  0.30352578    -0.73200
Al225      Al  0.55274841  0.76638671  0.33149488     1.49000
C226        C  0.51638140  0.77947195  0.28786600     0.94100
O227        O  0.55412477  0.73098481  0.25484319    -0.79500
O228        O  0.58705546  0.69171539  0.31785760    -0.73000
Al229      Al  0.53586971  0.72245628  0.28878116     1.90100
O230        O  0.59451516  0.71772070  0.26927239    -0.72100
O231        O  0.60612244  0.73499706  0.34307252    -0.71900
O232        O  0.60822686  0.76231674  0.29501822    -0.77600
O233        O  0.56910000  0.74954386  0.36296936    -0.75800
O234        O  0.56143130  0.73897418  0.30900402    -1.11900
O235        O  0.51879611  0.75044617  0.34326965    -0.71100
C236        C  0.50752775  0.72743997  0.33931597     0.99600
C237        C  0.57830728  0.72307791  0.25000752     0.96000
Al238      Al  0.59594276  0.72769905  0.30657646     1.55600
O239        O  0.51324640  0.75425011  0.28318228    -0.75800
C240        C  0.59343328  0.74105627  0.36452540     1.00100
C241        C  0.57130300  0.67632960  0.30437596     0.95000
O242        O  0.55236321  0.68655458  0.28995112    -0.81100
O243        O  0.31142271  0.69383451  0.43469854    -0.80500
C244        C  0.20666895  0.67589220  0.38915831     0.98800
O245        O  0.22904590  0.67540926  0.37631085    -0.69700
O246        O  0.25712876  0.72009110  0.38329625    -0.73200
Al247      Al  0.26582248  0.68257295  0.38713180     1.49000
C248        C  0.26736213  0.73953606  0.39668939     0.94100
O249        O  0.24176049  0.72096045  0.45835222    -0.79500
O250        O  0.26192528  0.64227854  0.45951180    -0.73000
Al251      Al  0.27576053  0.70591468  0.44512032     1.90100
O252        O  0.22213534  0.68145318  0.46546145    -0.72100
O253        O  0.24130652  0.63015932  0.41067434    -0.71900
O254        O  0.20585451  0.67321860  0.41482844    -0.77600
O255        O  0.27523269  0.64487815  0.38580641    -0.75800
O256        O  0.25895310  0.68241203  0.42282514    -1.11900
O257        O  0.30400896  0.68983004  0.39071477    -0.71100
C258        C  0.32041394  0.69120683  0.41063609     0.99600
C259        C  0.22324727  0.70688135  0.46968337     0.96000
Al260      Al  0.23491699  0.65869997  0.43649757     1.55600
O261        O  0.27747588  0.73563129  0.42002899    -0.75800
C262        C  0.25912611  0.62597105  0.39256638     1.00100
C263        C  0.27587848  0.65545367  0.47691758     0.95000
O264        O  0.27841667  0.68109629  0.47488093    -0.81100
O265        O  0.80416737  0.56146615  0.81093870    -0.80500
C266        C  0.81549042  0.60988491  0.70633390     0.98800
O267        O  0.81639732  0.62194866  0.72910225    -0.69700
O268        O  0.77379859  0.61236834  0.75934427    -0.73200
Al269      Al  0.81192210  0.60997131  0.76567466     1.49000
C270        C  0.75491807  0.59762667  0.76877743     0.94100
O271        O  0.77603868  0.53605108  0.74281450    -0.79500
O272        O  0.85513016  0.53870246  0.75643340    -0.73000
Al273      Al  0.79174230  0.55055479  0.77566355     1.90100
O274        O  0.81390139  0.53301282  0.71957913    -0.72100
O275        O  0.86420994  0.58920753  0.73775925    -0.71900
O276        O  0.81899755  0.58434466  0.70460697    -0.77600
O277        O  0.85016191  0.61307409  0.77278896    -0.75800
O278        O  0.81330519  0.57428501  0.75795826    -1.11900
O279        O  0.80694089  0.60552151  0.80382810    -0.71100
C280        C  0.80628869  0.58550959  0.82004072     0.99600
C281        C  0.78932363  0.52621409  0.72302172     0.96000
Al282      Al  0.83609670  0.56235780  0.73195876     1.55600
O283        O  0.76029436  0.57408515  0.77794928    -0.75800
C284        C  0.86855220  0.60729003  0.75567589     1.00100
C285        C  0.84391669  0.52080426  0.77136934     0.95000
O286        O  0.81877222  0.52230313  0.77732026    -0.81100
O287        O  0.96725440  0.29815697  0.82910220    -0.80500
C288        C  0.88355781  0.21976386  0.80956913     0.98800
O289        O  0.90105040  0.21928263  0.82860123    -0.69700
O290        O  0.95067189  0.22257170  0.80921426    -0.73200
Al291      Al  0.93193315  0.24209874  0.83688737     1.49000
C292        C  0.96946378  0.23155825  0.79408183     0.94100
O293        O  0.93358453  0.27973616  0.76139022    -0.79500
O294        O  0.89239993  0.31439667  0.82057512    -0.73000
Al295      Al  0.94865685  0.28784800  0.79643756     1.90100
O296        O  0.89066209  0.28727372  0.77194154    -0.72100
O297        O  0.87628619  0.26961599  0.84572898    -0.71900
O298        O  0.87887204  0.24178047  0.79698612    -0.77600
O299        O  0.91374019  0.25825097  0.86747141    -0.75800
O300        O  0.92279288  0.26929045  0.81429937    -1.11900
O301        O  0.96538391  0.25844342  0.84974665    -0.71100
C302        C  0.97637332  0.28166271  0.84673706     0.99600
C303        C  0.90913755  0.28387790  0.75439638     0.96000
Al304      Al  0.88762780  0.27758661  0.80932184     1.55600
O305        O  0.97239601  0.25704760  0.79080182    -0.75800
C306        C  0.88866885  0.26459443  0.86780494     1.00100
C307        C  0.90893408  0.33113898  0.80997972     0.95000
O308        O  0.93025211  0.32265301  0.79800806    -0.81100
O309        O  0.79128054  0.66940934  0.02060215    -0.80500
C310        C  0.71451740  0.68824787  0.10493432     0.98800
O311        O  0.71218603  0.67098757  0.08578717    -0.69700
O312        O  0.71744215  0.69296495  0.03749372    -0.73200
Al313      Al  0.73442688  0.66250380  0.05466054     1.49000
C314        C  0.72786422  0.70859511  0.01990234     0.94100
O315        O  0.77686966  0.73489589  0.05955115    -0.79500
O316        O  0.80759940  0.66896155  0.09452499    -0.73000
Al317      Al  0.78303563  0.70087416  0.04141912     1.90100
O318        O  0.78574435  0.71986241  0.10079720    -0.72100
O319        O  0.76068475  0.64704914  0.10954667    -0.71900
O320        O  0.73761974  0.69818598  0.11082435    -0.77600
O321        O  0.74729522  0.62913634  0.07088921    -0.75800
O322        O  0.76321422  0.68207853  0.06556436    -1.11900
O323        O  0.75070435  0.65039647  0.02093243    -0.71100
C324        C  0.77432034  0.65273277  0.01059906     0.99600
C325        C  0.78327270  0.73933971  0.08411941     0.96000
Al326      Al  0.77210430  0.68331595  0.10086571     1.55600
O327        O  0.75347350  0.71041861  0.01766125    -0.75800
C328        C  0.75376401  0.62637795  0.09574426     1.00100
C329        C  0.82493672  0.68044726  0.07924523     0.95000
O330        O  0.81729500  0.69546413  0.05964483    -0.81100
O331        O  0.16454837  0.47900588  0.20020288    -0.80500
C332        C  0.18078596  0.39428138  0.27755208     0.98800
O333        O  0.16166685  0.41184514  0.27841415    -0.69700
O334        O  0.17875845  0.46214628  0.27545066    -0.73200
Al335      Al  0.15269578  0.44255206  0.25504649     1.49000
C336        C  0.19583669  0.47954632  0.26744397     0.94100
O337        O  0.23003159  0.44263902  0.22068627    -0.79500
O338        O  0.16985815  0.40439997  0.18291193    -0.73000
Al339      Al  0.19590689  0.45908806  0.21136424     1.90100
O340        O  0.21840611  0.40078976  0.20996059    -0.72100
O341        O  0.14462832  0.38688371  0.22739283    -0.71900
O342        O  0.19280952  0.38933222  0.25528152    -0.77600
O343        O  0.12260417  0.42394517  0.23857036    -0.75800
O344        O  0.17634980  0.43353913  0.22865957    -1.11900
O345        O  0.13975163  0.47520375  0.23734922    -0.71100
C346        C  0.14464714  0.48666130  0.21468847     0.99600
C347        C  0.23644387  0.41833068  0.21523742     0.96000
Al348      Al  0.18089680  0.39845900  0.21966321     1.55600
O349        O  0.20159301  0.48198525  0.24247467    -0.75800
C350        C  0.12243952  0.39891693  0.23242601     1.00100
C351        C  0.18133126  0.42111258  0.16687751     0.95000
O352        O  0.19451677  0.44139282  0.17620485    -0.81100
O353        O  0.04953466  0.68306091  0.18290688    -0.80500
C354        C  0.10223189  0.78603385  0.17381242     0.98800
O355        O  0.11351197  0.76278611  0.17255840    -0.69700
O356        O  0.10333873  0.73049036  0.21371866    -0.73200
Al357      Al  0.10014924  0.72624221  0.17541516     1.49000
C358        C  0.08809509  0.72118968  0.23221873     0.94100
O359        O  0.02771417  0.75210704  0.21268281    -0.79500
O360        O  0.02966795  0.73894000  0.13316714    -0.73000
Al361      Al  0.04046238  0.71864580  0.19616384     1.90100
O362        O  0.02476220  0.77541741  0.17490946    -0.72100
O363        O  0.08025351  0.75702712  0.12470616    -0.71900
O364        O  0.07672436  0.78871431  0.17042599    -0.77600
O365        O  0.10263822  0.72055691  0.13689195    -0.75800
O366        O  0.06486396  0.73564321  0.17481215    -1.11900
O367        O  0.09382048  0.68806400  0.17845506    -0.71100
C368        C  0.07297618  0.67290687  0.17917277     0.99600
C369        C  0.01843760  0.77239065  0.19961364     0.96000
Al370      Al  0.05379313  0.76257962  0.15271369     1.55600
O371        O  0.06385863  0.71421794  0.22697264    -0.75800
C372        C  0.09742159  0.73860987  0.11929137     1.00100
C373        C  0.01152577  0.72417714  0.14422611     0.95000
O374        O  0.01220515  0.71886997  0.16949219    -0.81100
O375        O  0.17636391  0.31965897  0.93767751    -0.80500
C376        C  0.27951939  0.33225584  0.88610963     0.98800
O377        O  0.25641076  0.33411182  0.87477952    -0.69700
O378        O  0.22771018  0.29076696  0.88571112    -0.73200
Al379      Al  0.22028760  0.32845426  0.88821494     1.49000
C380        C  0.21917665  0.27181304  0.90085253     0.94100
O381        O  0.24598151  0.29306266  0.96181192    -0.79500
O382        O  0.23227862  0.37197669  0.95848602    -0.73000
Al383      Al  0.21246413  0.30834427  0.94787626     1.90100
O384        O  0.26942996  0.33091509  0.96386596    -0.72100
O385        O  0.24881596  0.38039202  0.90734681    -0.71900
O386        O  0.28213218  0.33503833  0.91163065    -0.77600
O387        O  0.21205514  0.36635000  0.88599283    -0.75800
O388        O  0.22923843  0.32986985  0.92359364    -1.11900
O389        O  0.18222563  0.32214003  0.89348396    -0.71100
C390        C  0.16653538  0.32085786  0.91384490     0.99600
C391        C  0.26610196  0.30637761  0.97095004     0.96000
Al392      Al  0.25578230  0.35264595  0.93439441     1.55600
O393        O  0.21041240  0.27688813  0.92460222    -0.75800
C394        C  0.22973584  0.38460116  0.89040075     1.00100
C395        C  0.21740113  0.36116941  0.97663595     0.95000
O396        O  0.21105976  0.33603374  0.97565217    -0.81100
O397        O  0.55184723  0.82189087  0.80746375    -0.80500
C398        C  0.60108058  0.71794967  0.82077976     0.98800
O399        O  0.61299501  0.74077638  0.82331924    -0.69700
O400        O  0.60502577  0.77150041  0.78071536    -0.73200
Al401      Al  0.60068154  0.77764564  0.81861025     1.49000
C402        C  0.59035149  0.77939716  0.76110283     0.94100
O403        O  0.52877522  0.75296681  0.78029290    -0.79500
O404        O  0.52838135  0.76784357  0.85918404    -0.73000
Al405      Al  0.54200740  0.78621139  0.79576135     1.90100
O406        O  0.52373388  0.73060511  0.81834578    -0.72100
O407        O  0.57917287  0.74848701  0.86925151    -0.71900
O408        O  0.57543131  0.71598069  0.82372612    -0.77600
O409        O  0.60165981  0.78477369  0.85678635    -0.75800
O410        O  0.56513844  0.76927564  0.81840662    -1.11900
O411        O  0.59580982  0.81603450  0.81355718    -0.71100
C412        C  0.57542572  0.83166184  0.81095859     0.99600
C413        C  0.51843256  0.73338448  0.79338226     0.96000
Al414      Al  0.55276056  0.74312386  0.84078999     1.55600
O415        O  0.56636224  0.78787223  0.76536853    -0.75800
C416        C  0.59678331  0.76663144  0.87436468     1.00100
C417        C  0.51077056  0.78263624  0.84704845     0.95000
O418        O  0.51305511  0.78808781  0.82186078    -0.81100
O419        O  0.28728937  0.83682053  0.96638902    -0.80500
C420        C  0.20658300  0.81903038  0.88475971     0.98800
O421        O  0.20586507  0.83676810  0.90354608    -0.69700
O422        O  0.21196739  0.81634948  0.95269969    -0.73200
Al423      Al  0.22980756  0.84507856  0.93352015     1.49000
C424        C  0.22228209  0.80074136  0.97043232     0.94100
O425        O  0.26997982  0.77002332  0.93088336    -0.79500
O426        O  0.30141017  0.83206248  0.89094110    -0.73000
Al427      Al  0.27730178  0.80490429  0.94707303     1.90100
O428        O  0.27570079  0.78269788  0.88833569    -0.72100
O429        O  0.25544551  0.85653994  0.87727464    -0.71900
O430        O  0.22877463  0.80716430  0.87895759    -0.77600
O431        O  0.24381509  0.87673652  0.91545911    -0.75800
O432        O  0.25729075  0.82340163  0.92260801    -1.11900
O433        O  0.24771859  0.85806648  0.96598576    -0.71100
C434        C  0.27141688  0.85481828  0.97578376     0.99600
C435        C  0.27452949  0.76422949  0.90619939     0.96000
Al436      Al  0.26459642  0.81996064  0.88704099     1.55600
O437        O  0.24786622  0.79756557  0.97193455    -0.75800
C438        C  0.25025687  0.87804778  0.89052913     1.00100
C439        C  0.31889043  0.82152075  0.90679196     0.95000
O440        O  0.31124914  0.80837041  0.92768573    -0.81100
O441        O  0.66184196  0.02845432  0.79105505    -0.80500
C442        C  0.68519194  0.11167412  0.71401670     0.98800
O443        O  0.66673372  0.09366647  0.71215544    -0.69700
O444        O  0.68468688  0.04374014  0.71688564    -0.73200
Al445      Al  0.65622829  0.06345854  0.73450640     1.49000
C446        C  0.69968047  0.02520512  0.72667898     0.94100
O447        O  0.72994618  0.06309678  0.77604638    -0.79500
O448        O  0.66693622  0.10273503  0.80734569    -0.73000
Al449      Al  0.69462450  0.04726965  0.78240695     1.90100
O450        O  0.71747451  0.10528448  0.78463743    -0.72100
O451        O  0.64545945  0.11968044  0.76109172    -0.71900
O452        O  0.69594174  0.11701854  0.73689805    -0.77600
O453        O  0.62460528  0.08241621  0.74777429    -0.75800
O454        O  0.67717768  0.07283071  0.76288096    -1.11900
O455        O  0.64179201  0.03093005  0.75100752    -0.71100
C456        C  0.64394387  0.02016666  0.77440823     0.99600
C457        C  0.73587366  0.08744780  0.78221769     0.96000
Al458      Al  0.68107178  0.10805499  0.77170379     1.55600
O459        O  0.70228411  0.02291186  0.75227533    -0.75800
C460        C  0.62387284  0.10741624  0.75428950     1.00100
C461        C  0.67716835  0.08661276  0.82473710     0.95000
O462        O  0.69071846  0.06588028  0.81703489    -0.81100
O463        O  0.46919755  0.21199187  0.16695675    -0.80500
C464        C  0.38286800  0.28660081  0.18399289     0.98800
O465        O  0.40194275  0.28974789  0.16677747    -0.69700
O466        O  0.45067451  0.28586411  0.18797175    -0.73200
Al467      Al  0.43347309  0.26792158  0.15792483     1.49000
C468        C  0.46763738  0.27630936  0.20484151     0.94100
O469        O  0.42874454  0.22691640  0.23126217    -0.79500
O470        O  0.39640331  0.19376249  0.16473260    -0.73000
Al471      Al  0.44768405  0.22041790  0.19773740     1.90100
O472        O  0.38842017  0.21576495  0.21526563    -0.72100
O473        O  0.37917025  0.23980055  0.14251177    -0.71900
O474        O  0.37728036  0.26310815  0.19309943    -0.77600
O475        O  0.41708160  0.25462174  0.12453973    -0.75800
O476        O  0.42330538  0.23916915  0.17793612    -1.11900
O477        O  0.46725259  0.25158548  0.14578097    -0.71100
C478        C  0.47812301  0.22826202  0.14908526     0.99600
C479        C  0.40441370  0.21936887  0.23513812     0.96000
Al480      Al  0.38837033  0.22903990  0.17872427     1.55600
O481        O  0.47049652  0.25080175  0.20725721    -0.75800
C482        C  0.39243644  0.24727882  0.12181141     1.00100
C483        C  0.41151724  0.17686889  0.17716293     0.95000
O484        O  0.43039046  0.18536120  0.19275720    -0.81100
O485        O  0.67349677  0.19207322  0.05355112    -0.80500
C486        C  0.78052818  0.18937916  0.09821237     0.98800
O487        O  0.75842342  0.19158333  0.11122572    -0.69700
O488        O  0.72566725  0.23156243  0.09856922    -0.73200
Al489      Al  0.72099991  0.19306403  0.10092380     1.49000
C490        C  0.71218064  0.24745496  0.08350133     0.94100
O491        O  0.73902318  0.22296331  0.02502271    -0.79500
O492        O  0.72692586  0.14336275  0.03206169    -0.73000
Al493      Al  0.70712539  0.20646586  0.04061119     1.90100
O494        O  0.76333725  0.18524253  0.02316423    -0.72100
O495        O  0.74688557  0.13777656  0.08217496    -0.71900
O496        O  0.78087221  0.18164050  0.07363376    -0.77600
O497        O  0.71593046  0.15539897  0.10925938    -0.75800
O498        O  0.72674063  0.18768605  0.06526069    -1.11900
O499        O  0.68210935  0.19562211  0.09751018    -0.71100
C500        C  0.66531695  0.19256872  0.07803117     0.99600
C501        C  0.75908781  0.20959101  0.01561426     0.96000
Al502      Al  0.75221190  0.16402573  0.05380875     1.55600
O503        O  0.70200090  0.23888284  0.06153737    -0.75800
C504        C  0.73105686  0.13568924  0.10238356     1.00100
C505        C  0.71204747  0.15353388  0.01353614     0.95000
O506        O  0.70655720  0.17870015  0.01357519    -0.81100
O507        O  0.28802809  0.94731441  0.17225869    -0.80500
C508        C  0.30486017  0.89201065  0.26806810     0.98800
O509        O  0.29635964  0.88761114  0.24417375    -0.69700
O510        O  0.26938516  0.90307773  0.20151568    -0.73200
Al511      Al  0.30731219  0.90289861  0.21089972     1.49000
C512        C  0.24985250  0.91820461  0.20911606     0.94100
O513        O  0.27976351  0.98410025  0.23991752    -0.79500
O514        O  0.34047271  0.97960840  0.23773295    -0.73000
Al515      Al  0.28663508  0.96217276  0.20845277     1.90100
O516        O  0.29920655  0.96205840  0.27326342    -0.72100
O517        O  0.36166873  0.92929621  0.23924358    -0.71900
O518        O  0.31969672  0.91258955  0.27335807    -0.77600
O519        O  0.34445812  0.89414367  0.21810760    -0.75800
O520        O  0.30770417  0.93674386  0.22440551    -1.11900
O521        O  0.31832496  0.91461669  0.17543364    -0.71100
C522        C  0.30389512  0.93039693  0.16096706     0.99600
C523        C  0.28339261  0.98064520  0.26508911     0.96000
Al524      Al  0.32845311  0.94523644  0.25330105     1.55600
O525        O  0.25390643  0.94264371  0.21648447    -0.75800
C526        C  0.36475629  0.90596176  0.22858281     1.00100
C527        C  0.33616930  0.99134099  0.21492101     0.95000
O528        O  0.31714120  0.98354107  0.19927048    -0.81100
C529        C  0.37140648  0.11102888  0.17038007     0.13900
C530        C  0.38871318  0.09228021  0.18364993     0.00900
C531        C  0.41508456  0.10066091  0.19141633     0.15900
C532        C  0.42332772  0.12783010  0.18770035     0.25300
C533        C  0.40534662  0.14712794  0.17591038    -0.41100
C534        C  0.37969483  0.13806547  0.16630075     0.32300
C535        C  0.37830697  0.06480429  0.19121025     0.01000
F536        F  0.43260483  0.08266296  0.20331310    -0.13400
F537        F  0.36171749  0.15571132  0.15457026    -0.13900
C538        C  0.36677131  0.04757232  0.17132233     0.15900
C539        C  0.35396494  0.02319112  0.17893454     0.25300
C540        C  0.35262850  0.01539540  0.20665815    -0.41000
C541        C  0.36519186  0.03213887  0.22643958     0.32200
C542        C  0.37780453  0.05665267  0.21878435     0.14000
F543        F  0.36744933  0.05463363  0.14449251    -0.13400
F544        F  0.36382847  0.02572427  0.25340061    -0.13900
F545        F  0.34245860  0.00745996  0.15911790    -0.16200
F546        F  0.38812599  0.07322221  0.23855636    -0.14700
F547        F  0.34565440  0.10368101  0.16296530    -0.14700
F548        F  0.44857254  0.13536471  0.19654021    -0.16100
C549        C  0.54471298  0.23280322  0.10968045     0.13900
C550        C  0.55242100  0.20516414  0.10814442     0.00900
C551        C  0.53462646  0.18499580  0.11807004     0.15900
C552        C  0.50987190  0.19240542  0.13033980     0.25300
C553        C  0.50249181  0.22021800  0.13291114    -0.41100
C554        C  0.51998104  0.24031139  0.12193307     0.32300
C555        C  0.58027870  0.19784788  0.09899450     0.01000
F556        F  0.54161676  0.15814099  0.11650042    -0.13400
F557        F  0.51409872  0.26733763  0.12461953    -0.13900
C558        C  0.59931584  0.18798486  0.11808235     0.15900
C559        C  0.62676111  0.18482265  0.11084489     0.25300
C560        C  0.63567509  0.19136565  0.08425219    -0.41000
C561        C  0.61614510  0.19956414  0.06464881     0.32200
C562        C  0.58870257  0.20298707  0.07207562     0.14000
F563        F  0.59158830  0.18291813  0.14424494    -0.13400
F564        F  0.62378465  0.20587276  0.03874073    -0.13900
F565        F  0.64473303  0.17616015  0.13019057    -0.16200
F566        F  0.57047927  0.21217573  0.05323137    -0.14700
F567        F  0.56198144  0.25266156  0.10082024    -0.14700
F568        F  0.49343785  0.17233000  0.14023294    -0.16100
C569        C  0.67665000  0.12776581  0.89033306     0.13900
C570        C  0.68078058  0.10736156  0.91019318     0.00900
C571        C  0.68088132  0.07977335  0.90201093     0.15900
C572        C  0.67837827  0.07279428  0.87431222     0.25300
C573        C  0.67542503  0.09330611  0.85429202    -0.41100
C574        C  0.67377780  0.12082849  0.86275018     0.32300
C575        C  0.68666683  0.11521574  0.93898892     0.01000
F576        F  0.68377212  0.05959635  0.92085344    -0.13400
F577        F  0.67120898  0.14131044  0.84417329    -0.13900
C578        C  0.66881721  0.13272649  0.95316944     0.15900
C579        C  0.67633965  0.14359848  0.97851560     0.25300
C580        C  0.70177711  0.13700493  0.99036419    -0.41000
C581        C  0.71882271  0.11800143  0.97713885     0.32200
C582        C  0.71141126  0.10733606  0.95154854     0.14000
F583        F  0.64447603  0.14012702  0.94197921    -0.13400
F584        F  0.74366945  0.11159012  0.98779449    -0.13900
F585        F  0.65915463  0.16148968  0.99105213    -0.16200
F586        F  0.72936027  0.09093298  0.93812828    -0.14700
F587        F  0.67698065  0.15464607  0.89741492    -0.14700
F588        F  0.67919514  0.04598070  0.86706329    -0.16100
C589        C  0.29746852  0.87037999  0.04651107     0.13900
C590        C  0.29341018  0.89881353  0.04859568     0.00900
C591        C  0.28265090  0.91307209  0.02596275     0.15900
C592        C  0.27557345  0.89894582  0.00197063     0.25300
C593        C  0.27995142  0.87057298  0.00003311    -0.41100
C594        C  0.29119256  0.85652049  0.02239559     0.32300
C595        C  0.29842677  0.91256172  0.07525462     0.01000
F596        F  0.27890906  0.94058383  0.02712969    -0.13400
F597        F  0.29458213  0.82894438  0.02148180    -0.13900
C598        C  0.32323709  0.90839212  0.08931678     0.15900
C599        C  0.32568351  0.91551750  0.11692098     0.25300
C600        C  0.30355099  0.92751162  0.13081146    -0.41000
C601        C  0.27973637  0.93423874  0.11593153     0.32200
C602        C  0.27712024  0.92659968  0.08850641     0.14000
F603        F  0.34470565  0.89619099  0.07660665    -0.13400
F604        F  0.25800347  0.94623296  0.12840570    -0.13900
F605        F  0.34940701  0.90990624  0.13025381    -0.16200
F606        F  0.25286610  0.93094638  0.07565633    -0.14700
F607        F  0.30620559  0.85567653  0.06839286    -0.14700
F608        F  0.26463828  0.91293935  0.98062247    -0.16100
C609        C  0.56910608  0.90638468  0.79087830     0.13900
C610        C  0.59283304  0.91760813  0.80272499     0.00900
C611        C  0.60909970  0.90095835  0.81969284     0.15900
C612        C  0.60254336  0.87337131  0.82362542     0.25300
C613        C  0.57971175  0.86171944  0.81048577    -0.41100
C614        C  0.56263164  0.87871510  0.79464368     0.32300
C615        C  0.60205492  0.94574320  0.79555720     0.01000
F616        F  0.63229077  0.91096642  0.83127104    -0.13400
F617        F  0.54055591  0.86824881  0.78140226    -0.13900
C618        C  0.60922633  0.96467083  0.81604000     0.15900
C619        C  0.62168053  0.98955923  0.80918907     0.25300
C620        C  0.62675316  0.99623497  0.78165960    -0.41000
C621        C  0.61776580  0.97812866  0.76111401     0.32200
C622        C  0.60590360  0.95302485  0.76800172     0.14000
F623        F  0.60470780  0.95878181  0.84276898    -0.13400
F624        F  0.62218133  0.98376705  0.73430446    -0.13900
F625        F  0.62919878  0.00692135  0.82953677    -0.16200
F626        F  0.59986052  0.93506052  0.74768429    -0.14700
F627        F  0.55256724  0.92206641  0.77498700    -0.14700
F628        F  0.61898301  0.85787540  0.83980549    -0.16100
C629        C  0.44453843  0.78296986  0.88705862     0.13900
C630        C  0.43323313  0.80836269  0.87935404     0.00900
C631        C  0.44907884  0.82636032  0.86354483     0.15900
C632        C  0.47515613  0.81862093  0.85455042     0.25300
C633        C  0.48602152  0.79277424  0.86130634    -0.41100
C634        C  0.47075729  0.77530924  0.87824405     0.32300
C635        C  0.40446370  0.81529946  0.88662754     0.01000
F636        F  0.43907364  0.85127446  0.85637426    -0.13400
F637        F  0.48029398  0.74997761  0.88451500    -0.13900
C638        C  0.39594529  0.81514006  0.91403951     0.15900
C639        C  0.36832099  0.81874307  0.92071817     0.25300
C640        C  0.34854379  0.82263325  0.90008828    -0.41000
C641        C  0.35734204  0.82438974  0.87271824     0.32200
C642        C  0.38499281  0.82062567  0.86606747     0.14000
F643        F  0.41439938  0.81104915  0.93439000    -0.13400
F644        F  0.33901016  0.82800513  0.85215081    -0.13900
F645        F  0.36087120  0.81796158  0.94742894    -0.16200
F646        F  0.39247716  0.82062755  0.83934789    -0.14700
F647        F  0.42949517  0.76485152  0.90173742    -0.14700
F648        F  0.48960851  0.83618437  0.83863829    -0.16100
C649        C  0.31711942  0.29977410  0.02927475     0.13900
C650        C  0.32434521  0.27195719  0.02835755     0.00900
C651        C  0.31175839  0.25503923  0.00867207     0.15900
C652        C  0.29263514  0.26595203  0.99001786     0.25300
C653        C  0.28575224  0.29397628  0.99076758    -0.41100
C654        C  0.29816307  0.31064746  0.01076720     0.32300
C655        C  0.34404633  0.26098416  0.04901047     0.01000
F656        F  0.31828273  0.22806840  0.00725985    -0.13400
F657        F  0.29131777  0.33749517  0.01301141    -0.13900
C658        C  0.33519034  0.24250155  0.06908023     0.15900
C659        C  0.35181170  0.23647599  0.09170199     0.25300
C660        C  0.37775670  0.24894159  0.09492778    -0.41000
C661        C  0.38752860  0.26554667  0.07350352     0.32200
C662        C  0.37078238  0.27157162  0.05088445     0.14000
F663        F  0.30963515  0.23169116  0.06778092    -0.13400
F664        F  0.41261203  0.27733521  0.07511852    -0.13900
F665        F  0.34187723  0.21923796  0.11105253    -0.16200
F666        F  0.38025646  0.28873356  0.03125663    -0.14700
F667        F  0.32791969  0.31637384  0.04876559    -0.14700
F668        F  0.28141665  0.24929282  0.97082341    -0.16100
C669        C  0.18065960  0.89715323  0.18349965     0.13900
C670        C  0.17616202  0.87366032  0.19939719     0.00900
C671        C  0.19394414  0.86754334  0.22106574     0.15900
C672        C  0.21697850  0.88374753  0.22571452     0.25300
C673        C  0.22235906  0.90635758  0.20887979    -0.41100
C674        C  0.20364514  0.91357898  0.18834456     0.32300
C675        C  0.15573478  0.85318253  0.19101258     0.01000
F676        F  0.19005854  0.84470391  0.23637337    -0.13400
F677        F  0.20889540  0.93504934  0.17156196    -0.13900
C678        C  0.16326823  0.83301243  0.17205690     0.15900
C679        C  0.14547960  0.81152928  0.16606580     0.25300
C680        C  0.11969991  0.81006915  0.17872105    -0.41000
C681        C  0.11181373  0.83072382  0.19713417     0.32200
C682        C  0.12989834  0.85208173  0.20343177     0.14000
F683        F  0.18830456  0.83367544  0.16005705    -0.13400
F684        F  0.08732702  0.82936655  0.21012182    -0.13900
F685        F  0.15353304  0.79198324  0.14801416    -0.16200
F686        F  0.12262615  0.87118541  0.22222149    -0.14700
F687        F  0.16381623  0.90306802  0.16222833    -0.14700
F688        F  0.23497822  0.87642604  0.24557700    -0.16100
C689        C  0.12307680  0.76564208  0.05141655     0.13900
C690        C  0.14850375  0.75251220  0.04908934     0.00900
C691        C  0.15532540  0.73182610  0.06786308     0.15900
C692        C  0.13774992  0.72561414  0.08966794     0.25300
C693        C  0.11307316  0.74022012  0.09319761    -0.41100
C694        C  0.10551697  0.75953766  0.07309613     0.32300
C695        C  0.16861364  0.76229355  0.02855180     0.01000
F696        F  0.17944499  0.71823140  0.06554170    -0.13400
F697        F  0.08163282  0.77361692  0.07500698    -0.13900
C698        C  0.19318642  0.77453795  0.03720539     0.15900
C699        C  0.21095672  0.78645959  0.01819305     0.25300
C700        C  0.20431467  0.78662455  0.99020834    -0.41000
C701        C  0.17995717  0.77404063  0.98149555     0.32200
C702        C  0.16233499  0.76182729  0.00049195     0.14000
F703        F  0.19928820  0.77618383  0.06424492    -0.13400
F704        F  0.17333215  0.77343974  0.95454536    -0.13900
F705        F  0.23392080  0.79919642  0.02730038    -0.16200
F706        F  0.13897324  0.74974658  0.99155297    -0.14700
F707        F  0.11596401  0.78575082  0.03362817    -0.14700
F708        F  0.14569712  0.70640689  0.10807867    -0.16100
C709        C  0.17406918  0.38583232  0.03538294     0.13900
C710        C  0.19363977  0.39927962  0.05157676     0.00900
C711        C  0.22013136  0.40334341  0.04118911     0.15900
C712        C  0.22741751  0.39256652  0.01566730     0.25300
C713        C  0.20834318  0.37737785  0.00038015    -0.41100
C714        C  0.18140779  0.37482230  0.01002940     0.32300
C715        C  0.18766083  0.40548025  0.08058356     0.01000
F716        F  0.23948610  0.41591663  0.05666642    -0.13400
F717        F  0.16245671  0.36087979  0.99524179    -0.13900
C718        C  0.18430282  0.38380678  0.09910094     0.15900
C719        C  0.18101208  0.38896574  0.12700532     0.25300
C720        C  0.18114484  0.41599560  0.13699787    -0.41000
C721        C  0.18376151  0.43776984  0.11827326     0.32200
C722        C  0.18698771  0.43252204  0.09027055     0.14000
F723        F  0.18562304  0.35748622  0.09025540    -0.13400
F724        F  0.18343409  0.46412131  0.12709829    -0.13900
F725        F  0.17943676  0.36738447  0.14439607    -0.16200
F726        F  0.18975965  0.45377695  0.07263918    -0.14700
F727        F  0.14816446  0.38235812  0.04472031    -0.14700
F728        F  0.25370181  0.39491984  0.00701748    -0.16100
C729        C  0.11197853  0.54122034  0.16974928     0.13900
C730        C  0.10102662  0.55918330  0.18942567     0.00900
C731        C  0.10273997  0.55192240  0.21720853     0.15900
C732        C  0.11570653  0.52770088  0.22522704     0.25300
C733        C  0.12782549  0.51035169  0.20569709    -0.41100
C734        C  0.12556029  0.51724346  0.17780913     0.32300
C735        C  0.09066926  0.58681507  0.18168506     0.01000
F736        F  0.09344961  0.56920886  0.23686624    -0.13400
F737        F  0.13683632  0.50099049  0.15831167    -0.13900
C738        C  0.06556946  0.59665701  0.19189084     0.15900
C739        C  0.05876503  0.62446187  0.18965060     0.25300
C740        C  0.07683227  0.64285489  0.17685220    -0.41000
C741        C  0.10059064  0.63241487  0.16432544     0.32200
C742        C  0.10753550  0.60479725  0.16690061     0.14000
F743        F  0.04820002  0.57954285  0.20514242    -0.13400
F744        F  0.11784253  0.64921521  0.15051512    -0.13900
F745        F  0.03546529  0.63360294  0.20168407    -0.16200
F746        F  0.13185689  0.59617819  0.15664027    -0.14700
F747        F  0.11000810  0.54716364  0.14270999    -0.14700
F748        F  0.11803545  0.52227620  0.25234377    -0.16100
C749        C  0.32631058  0.32898970  0.21620642     0.13900
C750        C  0.33313340  0.35553406  0.20764385     0.00900
C751        C  0.35746613  0.35969768  0.19302919     0.15900
C752        C  0.37406775  0.33746285  0.18588583     0.25300
C753        C  0.36653560  0.31055606  0.19322221    -0.41100
C754        C  0.34277855  0.30674669  0.20912877     0.32300
C755        C  0.31270245  0.37771364  0.21043700     0.01000
F756        F  0.36471706  0.38527637  0.18500184    -0.13400
F757        F  0.33463928  0.28136417  0.21693561    -0.13900
C758        C  0.30202353  0.38481441  0.23619381     0.15900
C759        C  0.27824492  0.40072177  0.23802071     0.25300
C760        C  0.26503120  0.40960452  0.21414513    -0.41000
C761        C  0.27673211  0.40416394  0.18859150     0.32200
C762        C  0.30054323  0.38851746  0.18672644     0.14000
F763        F  0.31359098  0.37484842  0.25939063    -0.13400
F764        F  0.26376287  0.41207114  0.16533463    -0.13900
F765        F  0.26681996  0.40543522  0.26287115    -0.16200
F766        F  0.31015708  0.38165785  0.16161201    -0.14700
F767        F  0.30266429  0.32431779  0.22998156    -0.14700
F768        F  0.39717575  0.34234565  0.17131815    -0.16100
C769        C  0.89002058  0.68438565  0.12012913     0.13900
C770        C  0.90960331  0.68819022  0.09947318     0.00900
C771        C  0.90162839  0.68617495  0.07197955     0.15900
C772        C  0.87416002  0.68172538  0.06521751     0.25300
C773        C  0.85433791  0.67908486  0.08591301    -0.41100
C774        C  0.86266853  0.67965848  0.11342833     0.32300
C775        C  0.93792931  0.69567428  0.10694909     0.01000
F776        F  0.92036914  0.68910908  0.05173712    -0.13400
F777        F  0.84403300  0.67790135  0.13391628    -0.13900
C778        C  0.95329959  0.67831259  0.12385116     0.15900
C779        C  0.97827597  0.68705445  0.13451530     0.25300
C780        C  0.98836554  0.71329612  0.12836788    -0.41000
C781        C  0.97386618  0.73004935  0.11007681     0.32200
C782        C  0.94867476  0.72133527  0.09953252     0.14000
F783        F  0.94354629  0.65327704  0.13088849    -0.13400
F784        F  0.98291823  0.75565102  0.10424295    -0.13900
F785        F  0.99221297  0.67021000  0.15167440    -0.16200
F786        F  0.93386070  0.73871829  0.08371503    -0.14700
F787        F  0.89710032  0.68697575  0.14685948    -0.14700
F788        F  0.86681338  0.68068260  0.03846230    -0.16100
C789        C  0.62913057  0.73698275  0.93834202     0.13900
C790        C  0.65222982  0.75371625  0.94167803     0.00900
C791        C  0.65561977  0.77641705  0.92442866     0.15900
C792        C  0.63656179  0.78187048  0.90367245     0.25300
C793        C  0.61383900  0.76447364  0.89956814    -0.41100
C794        C  0.61007148  0.74233694  0.91772493     0.32300
C795        C  0.67309580  0.74640347  0.96248918     0.01000
F796        F  0.67767653  0.79303969  0.92737026    -0.13400
F797        F  0.58859621  0.72493982  0.91490870    -0.13900
C798        C  0.69983039  0.73934594  0.95456473     0.15900
C799        C  0.71817374  0.72831885  0.97361873     0.25300
C800        C  0.70994548  0.72384365  0.00084226    -0.41000
C801        C  0.68373162  0.73238534  0.00904939     0.32200
C802        C  0.66554401  0.74368912  0.99006065     0.14000
F803        F  0.70764138  0.74150829  0.92802854    -0.13400
F804        F  0.67558884  0.72950444  0.03541140    -0.13900
F805        F  0.74335246  0.72035933  0.96497807    -0.16200
F806        F  0.64019345  0.75135479  0.99840765    -0.14700
F807        F  0.62576514  0.71444650  0.95422388    -0.14700
F808        F  0.64104022  0.80358797  0.88698297    -0.16100
C809        C  0.09206575  0.29876280  0.91916179     0.13900
C810        C  0.08091074  0.30983897  0.89504998     0.00900
C811        C  0.09748632  0.32652634  0.87856130     0.15900
C812        C  0.12495351  0.33111507  0.88537789     0.25300
C813        C  0.13647508  0.31934985  0.90904972    -0.41100
C814        C  0.11951634  0.30362349  0.92621968     0.32300
C815        C  0.05279498  0.30242098  0.88581687     0.01000
F816        F  0.08744149  0.33727021  0.85500890    -0.13400
F817        F  0.12988632  0.29155975  0.94897333    -0.13900
C818        C  0.03289404  0.32272103  0.88113271     0.15900
C819        C  0.00752180  0.31592366  0.86946731     0.25300
C820        C  0.00148519  0.28864536  0.86243305    -0.41000
C821        C  0.02103084  0.26820475  0.86816169     0.32200
C822        C  0.04642673  0.27505222  0.87960127     0.14000
F823        F  0.03821509  0.34922703  0.88752593    -0.13400
F824        F  0.01632294  0.24175358  0.86101707    -0.13900
F825        F  0.98891321  0.33604085  0.86486438    -0.16200
F826        F  0.06544659  0.25509474  0.88314619    -0.14700
F827        F  0.07650344  0.28268256  0.93556130    -0.14700
F828        F  0.14047957  0.34662871  0.86839522    -0.16100
C829        C  0.80782507  0.11111339  0.76898906     0.13900
C830        C  0.81206976  0.12773655  0.79213890     0.00900
C831        C  0.79310811  0.12689273  0.81366526     0.15900
C832        C  0.76936602  0.11132528  0.81130722     0.25300
C833        C  0.76411558  0.09626238  0.78742457    -0.41100
C834        C  0.78396266  0.09525872  0.76672690     0.32300
C835        C  0.83417119  0.14844003  0.79313172     0.01000
F836        F  0.79644785  0.14300715  0.83605594    -0.13400
F837        F  0.77915007  0.08090140  0.74344819    -0.13900
C838        C  0.83366417  0.17078077  0.77508612     0.15900
C839        C  0.85030324  0.19363255  0.77981922     0.25300
C840        C  0.86791047  0.19451130  0.80271037    -0.41000
C841        C  0.86958928  0.17119589  0.81967238     0.32200
C842        C  0.85285263  0.14849216  0.81491445     0.14000
F843        F  0.81569234  0.17127061  0.75389703    -0.13400
F844        F  0.88644307  0.17070835  0.84174039    -0.13900
F845        F  0.84835027  0.21521981  0.76247289    -0.16200
F846        F  0.85392446  0.12696195  0.83241360    -0.14700
F847        F  0.82608855  0.11129365  0.74811736    -0.14700
F848        F  0.75046789  0.11244862  0.83162466    -0.16100
C849        C  0.82874775  0.27078995  0.91654502     0.13900
C850        C  0.83683098  0.25314044  0.93767825     0.00900
C851        C  0.86367363  0.24273125  0.93774045     0.15900
C852        C  0.88142999  0.24808795  0.91595672     0.25300
C853        C  0.87265132  0.26403521  0.89363524    -0.41100
C854        C  0.84650014  0.27631374  0.89480408     0.32300
C855        C  0.81644343  0.24276934  0.95761194     0.01000
F856        F  0.87221768  0.22615651  0.95832041    -0.13400
F857        F  0.83752099  0.29269815  0.87425184    -0.13900
C858        C  0.81096133  0.21459315  0.95855387     0.15900
C859        C  0.79197393  0.20413108  0.97701658     0.25300
C860        C  0.77786571  0.22161252  0.99509146    -0.41000
C861        C  0.78270542  0.24999090  0.99366004     0.32200
C862        C  0.80188263  0.26048738  0.97503370     0.14000
F863        F  0.82371979  0.19711963  0.94111941    -0.13400
F864        F  0.76954929  0.26745229  0.01078471    -0.13900
F865        F  0.78707826  0.17676482  0.97680351    -0.16200
F866        F  0.80667973  0.28783778  0.97441889    -0.14700
F867        F  0.80294771  0.28109344  0.91590344    -0.14700
F868        F  0.90643103  0.23597574  0.91587141    -0.16100
C869        C  0.79460567  0.57808607  0.89658725     0.13900
C870        C  0.80020721  0.60480492  0.90572915     0.00900
C871        C  0.81019636  0.62413821  0.88700817     0.15900
C872        C  0.81373743  0.61725658  0.85958080     0.25300
C873        C  0.80670714  0.59098155  0.84992842    -0.41100
C874        C  0.79779153  0.57119718  0.86892452     0.32300
C875        C  0.79449308  0.61331897  0.93430664     0.01000
F876        F  0.81533999  0.65025672  0.89500920    -0.13400
F877        F  0.79111570  0.54551804  0.86067143    -0.13900
C878        C  0.81487960  0.62628192  0.94987537     0.15900
C879        C  0.80859138  0.63821026  0.97506165     0.25300
C880        C  0.78173520  0.63705530  0.98556966    -0.41000
C881        C  0.76164261  0.62271830  0.97054228     0.32200
C882        C  0.76795545  0.61112405  0.94512654     0.14000
F883        F  0.84086433  0.62810406  0.94025840    -0.13400
F884        F  0.73545527  0.62108401  0.97962373    -0.13900
F885        F  0.82876112  0.65165341  0.98864862    -0.16200
F886        F  0.74766737  0.59920103  0.93034218    -0.14700
F887        F  0.78566543  0.55876821  0.91438995    -0.14700
F888        F  0.82347378  0.63673786  0.84236709    -0.16100
C889        C  0.86496072  0.46035520  0.81460705     0.13900
C890        C  0.88108510  0.44532947  0.79617388     0.00900
C891        C  0.88750539  0.45684115  0.77063176     0.15900
C892        C  0.87687297  0.48241676  0.76314395     0.25300
C893        C  0.85949350  0.49674581  0.78103844    -0.41100
C894        C  0.85417878  0.48578410  0.80707795     0.32300
C895        C  0.88867657  0.41658617  0.80235011     0.01000
F896        F  0.90247570  0.44244220  0.75220154    -0.13400
F897        F  0.83787322  0.49940207  0.82497069    -0.13900
C898        C  0.86804171  0.39687305  0.80565691     0.15900
C899        C  0.87471649  0.36930293  0.80934596     0.25300
C900        C  0.90226116  0.36077952  0.80967222    -0.41000
C901        C  0.92296832  0.38067500  0.80700627     0.32200
C902        C  0.91620223  0.40835167  0.80344534     0.14000
F903        F  0.84127896  0.40415935  0.80390404    -0.13400
F904        F  0.94975661  0.37333040  0.80760780    -0.13900
F905        F  0.85408521  0.35076785  0.81088269    -0.16200
F906        F  0.93649958  0.42711808  0.80083254    -0.14700
F907        F  0.85891517  0.44992902  0.83959352    -0.14700
F908        F  0.88172998  0.49207362  0.73759208    -0.16100
C909        C  0.62999906  0.65705891  0.78244198     0.13900
C910        C  0.65594121  0.65480848  0.79466706     0.00900
C911        C  0.66236765  0.67136776  0.81721013     0.15900
C912        C  0.64368254  0.69077609  0.82671162     0.25300
C913        C  0.61808609  0.69389888  0.81394630    -0.41100
C914        C  0.61104118  0.67639444  0.79217669     0.32300
C915        C  0.67752756  0.63698045  0.78314369     0.01000
F916        F  0.68734734  0.66953231  0.82925682    -0.13400
F917        F  0.58666309  0.67932289  0.77916714    -0.13900
C918        C  0.69569087  0.64763872  0.76370912     0.15900
C919        C  0.71998627  0.63381807  0.75747478     0.25300
C920        C  0.72669036  0.60906355  0.77076464    -0.41000
C921        C  0.70714332  0.59726591  0.78844194     0.32200
C922        C  0.68288795  0.61127682  0.79470444     0.14000
F923        F  0.69072436  0.67238050  0.75209427    -0.13400
F924        F  0.71219164  0.57308717  0.80112829    -0.13900
F925        F  0.73749785  0.64541388  0.73933445    -0.16200
F926        F  0.66537081  0.60053472  0.81333745    -0.14700
F927        F  0.62350772  0.64133793  0.76049148    -0.14700
F928        F  0.65090444  0.70714905  0.84797665    -0.16100
C929        C  0.15565436  0.66801317  0.33267070     0.13900
C930        C  0.14330681  0.69405318  0.33264789     0.00900
C931        C  0.14913576  0.71238898  0.35408281     0.15900
C932        C  0.16827270  0.70545897  0.37421657     0.25300
C933        C  0.18169203  0.68011648  0.37318840    -0.41100
C934        C  0.17476177  0.66115814  0.35279348     0.32300
C935        C  0.12676768  0.70297488  0.30883981     0.01000
F936        F  0.13727029  0.73750880  0.35473172    -0.13400
F937        F  0.18774985  0.63660198  0.35150254    -0.13900
C938        C  0.10419520  0.68752832  0.29996961     0.15900
C939        C  0.09057457  0.69437388  0.27575126     0.25300
C940        C  0.09943730  0.71673130  0.25988209    -0.41000
C941        C  0.12126487  0.73285746  0.26941636     0.32200
C942        C  0.13486444  0.72598757  0.29359225     0.14000
F943        F  0.09583343  0.66531500  0.31437130    -0.13400
F944        F  0.12988227  0.75494875  0.25497612    -0.13900
F945        F  0.06981233  0.67808783  0.26702625    -0.16200
F946        F  0.15696021  0.74097366  0.30128818    -0.14700
F947        F  0.15084001  0.65001084  0.31206060    -0.14700
F948        F  0.17539155  0.72431969  0.39333938    -0.16100
C949        C  0.24910742  0.51869019  0.30754457     0.13900
C950        C  0.23256616  0.53395589  0.32546662     0.00900
C951        C  0.20398329  0.53057673  0.32453163     0.15900
C952        C  0.19216219  0.51240325  0.30594110     0.25300
C953        C  0.20863768  0.49778582  0.28756791    -0.41100
C954        C  0.23717730  0.50090329  0.28851101     0.32300
C955        C  0.24460636  0.55476154  0.34394508     0.01000
F956        F  0.18740848  0.54571207  0.34089709    -0.13400
F957        F  0.25345182  0.48634375  0.27135081    -0.13900
C958        C  0.25959814  0.57674777  0.33311388     0.15900
C959        C  0.26671644  0.59900523  0.34965304     0.25300
C960        C  0.25862528  0.59978887  0.37728333    -0.41000
C961        C  0.24545099  0.57676327  0.38852216     0.32200
C962        C  0.23860120  0.55443827  0.37200942     0.14000
F963        F  0.26534926  0.57776471  0.30598671    -0.13400
F964        F  0.23791668  0.57641686  0.41522594    -0.13900
F965        F  0.27926966  0.62080148  0.33790945    -0.16200
F966        F  0.22490059  0.53301495  0.38315640    -0.14700
F967        F  0.27676826  0.52096485  0.30857352    -0.14700
F968        F  0.16449487  0.50994112  0.30505765    -0.16100
C969        C  0.28185306  0.82693318  0.30296462     0.13900
C970        C  0.28333573  0.83424013  0.33063544     0.00900
C971        C  0.29187872  0.86068640  0.33790832     0.15900
C972        C  0.29889000  0.87965209  0.31765393     0.25300
C973        C  0.29746985  0.87233600  0.28981646    -0.41100
C974        C  0.28878050  0.84572196  0.28274883     0.32300
C975        C  0.27756162  0.81335689  0.35157617     0.01000
F976        F  0.29328893  0.86812553  0.36461087    -0.13400
F977        F  0.28770111  0.83744140  0.25625918    -0.13900
C978        C  0.29887756  0.80349152  0.36810497     0.15900
C979        C  0.29489765  0.78031577  0.38429038     0.25300
C980        C  0.26961730  0.76659124  0.38389833    -0.41000
C981        C  0.24788251  0.77727972  0.36847028     0.32200
C982        C  0.25178254  0.80066454  0.35253560     0.14000
F983        F  0.32413330  0.81499884  0.36690189    -0.13400
F984        F  0.22316681  0.76460697  0.36825795    -0.13900
F985        F  0.31644951  0.76990200  0.39843509    -0.16200
F986        F  0.23078389  0.81027956  0.33708847    -0.14700
F987        F  0.27455562  0.80115310  0.29553136    -0.14700
F988        F  0.30672927  0.90518703  0.32530207    -0.16100
C989        C  0.38782015  0.68569064  0.37251396     0.13900
C990        C  0.40634476  0.69686752  0.39141544     0.00900
C991        C  0.39703298  0.70362436  0.41774296     0.15900
C992        C  0.36933801  0.70055823  0.42460529     0.25300
C993        C  0.35037960  0.69084813  0.40511161    -0.41100
C994        C  0.36021394  0.68263052  0.37925205     0.32300
C995        C  0.43447780  0.70394338  0.38243310     0.01000
F996        F  0.41468157  0.71386983  0.43659228    -0.13400
F997        F  0.34302330  0.67224726  0.36004060    -0.13900
C998        C  0.44268633  0.73148432  0.38165987     0.15900
C999        C  0.46721898  0.73897395  0.36900203     0.25300
C1000       C  0.48390618  0.71905368  0.35648134    -0.41000
C1001       C  0.47651235  0.69127032  0.35887277     0.32200
C1002       C  0.45202362  0.68381345  0.37174278     0.14000
F1003       F  0.42602022  0.75139757  0.39155068    -0.13400
F1004       F  0.49276960  0.67131264  0.34840491    -0.13900
F1005       F  0.47367784  0.76595419  0.36754021    -0.16200
F1006       F  0.44504108  0.65695896  0.37314039    -0.14700
F1007       F  0.39617054  0.67914711  0.34686030    -0.14700
F1008       F  0.36097628  0.70830331  0.44990320    -0.16100
C1009       C  0.60975624  0.73657696  0.18097661     0.13900
C1010       C  0.62346568  0.71152234  0.17659662     0.00900
C1011       C  0.61841365  0.68961383  0.19452347     0.15900
C1012       C  0.60107389  0.69293377  0.21683254     0.25300
C1013       C  0.58872885  0.71832541  0.22220400    -0.41100
C1014       C  0.59261771  0.74000688  0.20380649     0.32300
C1015       C  0.64472295  0.70829939  0.15504140     0.01000
F1016       F  0.63199263  0.66550649  0.19177452    -0.13400
F1017       F  0.58170766  0.76499525  0.20913767    -0.13900
C1018       C  0.66737531  0.72606824  0.15396129     0.15900
C1019       C  0.68969575  0.72013773  0.13698383     0.25300
C1020       C  0.68998711  0.69609739  0.12103426    -0.41000
C1021       C  0.66673005  0.67907540  0.12120530     0.32200
C1022       C  0.64429303  0.68530067  0.13773973     0.14000
F1023       F  0.66863896  0.74840434  0.17043616    -0.13400
F1024       F  0.66608869  0.65558361  0.10637012    -0.13900
F1025       F  0.71119521  0.73773078  0.13655430    -0.16200
F1026       F  0.62240751  0.66819483  0.13757336    -0.14700
F1027       F  0.61378122  0.75798418  0.16378750    -0.14700
F1028       F  0.59798548  0.67178330  0.23454763    -0.16100
C1029       C  0.44949070  0.81344445  0.26778342     0.13900
C1030       C  0.45819706  0.83721385  0.25401000     0.00900
C1031       C  0.48655612  0.84196678  0.25152530     0.15900
C1032       C  0.50563426  0.82341453  0.26270241     0.25300
C1033       C  0.49673262  0.79946602  0.27597279    -0.41100
C1034       C  0.46847718  0.79472629  0.27835970     0.32300
C1035       C  0.43730233  0.85685767  0.24301116     0.01000
F1036       F  0.49579769  0.86425132  0.23781559    -0.13400
F1037       F  0.45918400  0.77236921  0.29195474    -0.13900
C1038       C  0.43643903  0.88432427  0.25176315     0.15900
C1039       C  0.41383986  0.90112706  0.24547469     0.25300
C1040       C  0.39153137  0.89084402  0.23022480    -0.41000
C1041       C  0.39377446  0.86403663  0.21946641     0.32200
C1042       C  0.41629006  0.84739362  0.22577732     0.14000
F1043       F  0.45663408  0.89442464  0.26793305    -0.13400
F1044       F  0.37353499  0.85317973  0.20381767    -0.13900
F1045       F  0.41324211  0.92697656  0.25562111    -0.16200
F1046       F  0.41706359  0.82146613  0.21577116    -0.14700
F1047       F  0.42241143  0.80868457  0.27170582    -0.14700
F1048       F  0.53279934  0.82848292  0.25997847    -0.16100
C1049       C  0.51282619  0.18978179  0.75006054     0.13900
C1050       C  0.53615434  0.18362999  0.73426825     0.00900
C1051       C  0.54052566  0.19810480  0.70985818     0.15900
C1052       C  0.52118020  0.21685399  0.70039678     0.25300
C1053       C  0.49713989  0.22197012  0.71529717    -0.41100
C1054       C  0.49343494  0.20893803  0.74064197     0.32300
C1055       C  0.55560638  0.16147000  0.74205037     0.01000
F1056       F  0.56346098  0.19368564  0.69484291    -0.13400
F1057       F  0.47033794  0.21342931  0.75535600    -0.13900
C1058       C  0.56076742  0.13988400  0.72365720     0.15900
C1059       C  0.58184295  0.12110512  0.72861574     0.25300
C1060       C  0.59825886  0.12351735  0.75207091    -0.41000
C1061       C  0.59228696  0.14430271  0.77116679     0.32200
C1062       C  0.57099574  0.16299697  0.76629838     0.14000
F1063       F  0.54606986  0.13770851  0.70018659    -0.13400
F1064       F  0.60769532  0.14705180  0.79412192    -0.13900
F1065       F  0.58763866  0.10196286  0.70933964    -0.16200
F1066       F  0.56653774  0.18355528  0.78444033    -0.14700
F1067       F  0.50816001  0.17628721  0.77383631    -0.14700
F1068       F  0.52571790  0.22977545  0.67624583    -0.16100
C1069       C  0.38260596  0.31658252  0.79896954     0.13900
C1070       C  0.35955088  0.30149474  0.80684544     0.00900
C1071       C  0.35155727  0.27865433  0.79139275     0.15900
C1072       C  0.36573508  0.27164284  0.76762695     0.25300
C1073       C  0.38828121  0.28735434  0.75898513    -0.41100
C1074       C  0.39701346  0.30950502  0.77534979     0.32300
C1075       C  0.34198946  0.31121000  0.82931335     0.01000
F1076       F  0.32897810  0.26412207  0.79845575    -0.13400
F1077       F  0.41841109  0.32545373  0.76768105    -0.13900
C1078       C  0.32681590  0.33537446  0.82590605     0.15900
C1079       C  0.30740816  0.34299182  0.84535109     0.25300
C1080       C  0.30321382  0.32677439  0.86864613    -0.41000
C1081       C  0.31912085  0.30318943  0.87266021     0.32200
C1082       C  0.33834254  0.29534330  0.85296309     0.14000
F1083       F  0.32965076  0.35068249  0.80292442    -0.13400
F1084       F  0.31458249  0.28674695  0.89454424    -0.13900
F1085       F  0.29194377  0.36569105  0.84099431    -0.16200
F1086       F  0.35267806  0.27179089  0.85640343    -0.14700
F1087       F  0.39050356  0.33883486  0.81363033    -0.14700
F1088       F  0.35676600  0.25004214  0.75261265    -0.16100
C1089       C  0.36454275  0.46002001  0.67083065     0.13900
C1090       C  0.37973614  0.44492936  0.69001660     0.00900
C1091       C  0.38425148  0.45622113  0.71606860     0.15900
C1092       C  0.37291011  0.48161933  0.72318226     0.25300
C1093       C  0.35657208  0.49628248  0.70439771    -0.41100
C1094       C  0.35309866  0.48537695  0.67788146     0.32300
C1095       C  0.38871147  0.41645286  0.68382472     0.01000
F1096       F  0.39839158  0.44190343  0.73521954    -0.13400
F1097       F  0.33824900  0.49900647  0.65877055    -0.13900
C1098       C  0.41638503  0.40873870  0.68566337     0.15900
C1099       C  0.42417036  0.38121804  0.68259166     0.25300
C1100       C  0.40432787  0.36078579  0.67775685    -0.41000
C1101       C  0.37678282  0.36898172  0.67444024     0.32200
C1102       C  0.36912765  0.39637702  0.67760117     0.14000
F1103       F  0.43585624  0.42785224  0.69086052    -0.13400
F1104       F  0.35685116  0.35040608  0.66896686    -0.13900
F1105       F  0.45100800  0.37457501  0.68529124    -0.16200
F1106       F  0.34220744  0.40307448  0.67593670    -0.14700
F1107       F  0.36036301  0.44991457  0.64530412    -0.14700
F1108       F  0.37683463  0.49107645  0.74899097    -0.16100
C1109       C  0.33567304  0.60908769  0.59157517     0.13900
C1110       C  0.31136689  0.60468637  0.57675871     0.00900
C1111       C  0.28890667  0.59261659  0.58986007     0.15900
C1112       C  0.29022161  0.58605737  0.61751352     0.25300
C1113       C  0.31401535  0.59164620  0.63280719    -0.41100
C1114       C  0.33694361  0.60278348  0.61949221     0.32300
C1115       C  0.30744649  0.61653977  0.54923579     0.01000
F1116       F  0.26482120  0.58920970  0.57640570    -0.13400
F1117       F  0.36030351  0.60809420  0.63356925    -0.13900
C1118       C  0.29776992  0.60046273  0.52742093     0.15900
C1119       C  0.28831399  0.61285153  0.50337850     0.25300
C1120       C  0.28855094  0.64157615  0.50077098    -0.41000
C1121       C  0.30008161  0.65736956  0.52208149     0.32200
C1122       C  0.30921420  0.64497541  0.54602440     0.14000
F1123       F  0.29651070  0.57281587  0.52987164    -0.13400
F1124       F  0.30128622  0.68509966  0.52061043    -0.13900
F1125       F  0.27825754  0.59675694  0.48309233    -0.16200
F1126       F  0.31787499  0.66108202  0.56695455    -0.14700
F1127       F  0.35777392  0.62043707  0.57920329    -0.14700
F1128       F  0.26731214  0.57624367  0.62974979    -0.16100
C1129       C  0.24665537  0.45636269  0.86709642     0.13900
C1130       C  0.24393319  0.45387795  0.83851411     0.00900
C1131       C  0.23251296  0.42964168  0.82780272     0.15900
C1132       C  0.22533719  0.40799651  0.84515648     0.25300
C1133       C  0.23038930  0.40969718  0.87344818    -0.41100
C1134       C  0.24052660  0.43431827  0.88429454     0.32300
C1135       C  0.25508653  0.47550908  0.82003553     0.01000
F1136       F  0.23015292  0.42599903  0.80038835    -0.13400
F1137       F  0.24528413  0.43674991  0.91153195    -0.13900
C1138       C  0.28191328  0.48532889  0.82395508     0.15900
C1139       C  0.29288224  0.50524397  0.80665168     0.25300
C1140       C  0.27773346  0.51519758  0.78428737    -0.41000
C1141       C  0.25103142  0.50519296  0.78005893     0.32200
C1142       C  0.23968986  0.48587020  0.79796769     0.14000
F1143       F  0.29810622  0.47475917  0.84390045    -0.13400
F1144       F  0.23580673  0.51419915  0.75864427    -0.13900
F1145       F  0.31898709  0.51370341  0.81104794    -0.16200
F1146       F  0.21356663  0.47742993  0.79375719    -0.14700
F1147       F  0.25610389  0.47993635  0.87837243    -0.14700
F1148       F  0.21571900  0.38445926  0.83392177    -0.16100
C1149       C  0.26293886  0.69597473  0.87316343     0.13900
C1150       C  0.28970472  0.68951383  0.86475482     0.00900
C1151       C  0.31168072  0.70513786  0.87473004     0.15900
C1152       C  0.30674087  0.72837986  0.89073021     0.25300
C1153       C  0.27982946  0.73599687  0.89734964    -0.41100
C1154       C  0.25803895  0.71910464  0.88941673     0.32300
C1155       C  0.29426847  0.67016771  0.84184185     0.01000
F1156       F  0.33768094  0.69938233  0.86683995    -0.13400
F1157       F  0.23190270  0.72635313  0.89538467    -0.13900
C1158       C  0.28566543  0.67759634  0.81551065     0.15900
C1159       C  0.29167080  0.66104601  0.79299509     0.25300
C1160       C  0.30643691  0.63641296  0.79625746    -0.41000
C1161       C  0.31468037  0.62878603  0.82291096     0.32200
C1162       C  0.30875567  0.64562041  0.84543741     0.14000
F1163       F  0.27219519  0.70157681  0.81146060    -0.13400
F1164       F  0.32849288  0.60507726  0.82730057    -0.13900
F1165       F  0.28353630  0.66969310  0.76790278    -0.16200
F1166       F  0.31717102  0.63798886  0.87076503    -0.14700
F1167       F  0.24143541  0.68095622  0.86402782    -0.14700
F1168       F  0.32803687  0.74476356  0.89785933    -0.16100
C1169       C  0.44432525  0.62802129  0.74892168     0.13900
C1170       C  0.44391112  0.65617978  0.74273007     0.00900
C1171       C  0.42200284  0.66672344  0.72746990     0.15900
C1172       C  0.39998653  0.65003408  0.72041514     0.25300
C1173       C  0.39871071  0.62263078  0.72956089    -0.41100
C1174       C  0.42179009  0.61140648  0.74266317     0.32300
C1175       C  0.46425572  0.67511571  0.75502595     0.01000
F1176       F  0.42065937  0.69379518  0.72134683    -0.13400
F1177       F  0.42196270  0.58490665  0.75096304    -0.13900
C1178       C  0.47795719  0.69481397  0.73914637     0.15900
C1179       C  0.49528313  0.71401916  0.75150726     0.25300
C1180       C  0.49974492  0.71351794  0.77996237    -0.41000
C1181       C  0.48591238  0.69371513  0.79576132     0.32200
C1182       C  0.46823930  0.67500694  0.78345987     0.14000
F1183       F  0.47454858  0.69552354  0.71161655    -0.13400
F1184       F  0.48879507  0.69271482  0.82336023    -0.13900
F1185       F  0.50752741  0.73313697  0.73555408    -0.16200
F1186       F  0.45408850  0.65742328  0.79962732    -0.14700
F1187       F  0.46598313  0.61694712  0.76236371    -0.14700
F1188       F  0.37905068  0.66144870  0.70612606    -0.16100
C1189       C  0.63668985  0.56189791  0.29272232     0.13900
C1190       C  0.60814257  0.56496623  0.29162290     0.00900
C1191       C  0.59187211  0.54216532  0.28505098     0.15900
C1192       C  0.60395271  0.51675023  0.27955757     0.25300
C1193       C  0.63258826  0.51357473  0.28085733    -0.41100
C1194       C  0.64878260  0.53653219  0.28762210     0.32300
C1195       C  0.59567426  0.59222460  0.29652253     0.01000
F1196       F  0.56421492  0.54448998  0.28402317    -0.13400
F1197       F  0.67651954  0.53489182  0.28829662    -0.13900
C1198       C  0.57903247  0.60445326  0.27652422     0.15900
C1199       C  0.56938278  0.63117516  0.28003586     0.25300
C1200       C  0.57685945  0.64651169  0.30330641    -0.41000
C1201       C  0.59261090  0.63381134  0.32380947     0.32200
C1202       C  0.60174024  0.60687984  0.32051969     0.14000
F1203       F  0.57347438  0.59114384  0.25278129    -0.13400
F1204       F  0.59967681  0.64762440  0.34685044    -0.13900
F1205       F  0.55421274  0.64255340  0.25973731    -0.16200
F1206       F  0.61707435  0.59526585  0.34056313    -0.14700
F1207       F  0.65305355  0.58379704  0.29775232    -0.14700
F1208       F  0.58755854  0.49535027  0.27285003    -0.16100
C1209       C  0.71675569  0.31323948  0.12345315     0.13900
C1210       C  0.68983149  0.32299667  0.12105265     0.00900
C1211       C  0.67174132  0.31024116  0.10275923     0.15900
C1212       C  0.67990093  0.28678542  0.08851828     0.25300
C1213       C  0.70610025  0.27549615  0.09292319    -0.41100
C1214       C  0.72479250  0.28954582  0.10963239     0.32300
C1215       C  0.67977403  0.34330291  0.14098446     0.01000
F1216       F  0.64570208  0.31956127  0.09997968    -0.13400
F1217       F  0.75043959  0.27961589  0.11356841    -0.13900
C1218       C  0.69057652  0.36990842  0.14167268     0.15900
C1219       C  0.68484926  0.38724522  0.16372700     0.25300
C1220       C  0.66852243  0.37797968  0.18549263    -0.41000
C1221       C  0.65667045  0.35180065  0.18406873     0.32200
C1222       C  0.66212826  0.33467404  0.16189954     0.14000
F1223       F  0.70750310  0.37863503  0.12151289    -0.13400
F1224       F  0.64025261  0.34256066  0.20445084    -0.13900
F1225       F  0.69670935  0.41234952  0.16467349    -0.16200
F1226       F  0.65153025  0.30898257  0.16167075    -0.14700
F1227       F  0.73457726  0.32539598  0.14096181    -0.14700
F1228       F  0.66135515  0.27381824  0.07236802    -0.16100
C1229       C  0.49258158  0.33986995  0.24229779     0.13900
C1230       C  0.51992520  0.33289790  0.24787843     0.00900
C1231       C  0.52911213  0.30637365  0.24170286     0.15900
C1232       C  0.51179154  0.28761829  0.22866695     0.25300
C1233       C  0.48490476  0.29511107  0.22140344    -0.41100
C1234       C  0.47519802  0.32114908  0.22916517     0.32300
C1235       C  0.54035780  0.35438819  0.25436302     0.01000
F1236       F  0.55560040  0.29936916  0.24635996    -0.13400
F1237       F  0.44902130  0.32865450  0.22361691    -0.13900
C1238       C  0.55458942  0.35494904  0.27937168     0.15900
C1239       C  0.57772096  0.37181622  0.28261701     0.25300
C1240       C  0.58705060  0.38812894  0.26074344    -0.41000
C1241       C  0.57142849  0.38868690  0.23641179     0.32200
C1242       C  0.54842823  0.37208327  0.23337926     0.14000
F1243       F  0.54659416  0.33855634  0.30026737    -0.13400
F1244       F  0.57945054  0.40372147  0.21451300    -0.13900
F1245       F  0.59138393  0.37155947  0.30679007    -0.16200
F1246       F  0.53519268  0.37169866  0.20895129    -0.14700
F1247       F  0.48311034  0.36523983  0.24853128    -0.14700
F1248       F  0.52202374  0.26282397  0.22139917    -0.16100
C1249       C  0.70164868  0.53007455  0.16741561     0.13900
C1250       C  0.72986326  0.53180727  0.16235090     0.00900
C1251       C  0.74770182  0.51502887  0.17769973     0.15900
C1252       C  0.73744558  0.49718901  0.19785672     0.25300
C1253       C  0.70908615  0.49540875  0.20269848    -0.41100
C1254       C  0.69141123  0.51213402  0.18705744     0.32300
C1255       C  0.74021242  0.55288533  0.14276304     0.01000
F1256       F  0.77506725  0.51578876  0.17307575    -0.13400
F1257       F  0.66394734  0.51195606  0.19126649    -0.13900
C1258       C  0.75907840  0.57271643  0.15157725     0.15900
C1259       C  0.76497197  0.59550881  0.13530255     0.25300
C1260       C  0.75180915  0.59938895  0.10989433    -0.41000
C1261       C  0.73440893  0.57855235  0.10016465     0.32200
C1262       C  0.72879617  0.55550068  0.11637432     0.14000
F1263       F  0.77037277  0.57116982  0.17688950    -0.13400
F1264       F  0.72140756  0.58121883  0.07577049    -0.13900
F1265       F  0.78280114  0.61443842  0.14509659    -0.16200
F1266       F  0.71122460  0.53624734  0.10673057    -0.14700
F1267       F  0.68380683  0.54671313  0.15410002    -0.14700
F1268       F  0.75524172  0.48159343  0.21240595    -0.16100
C1269       C  0.67741311  0.38398428  0.45509340     0.13900
C1270       C  0.69824680  0.39116557  0.43656054     0.00900
C1271       C  0.72565289  0.38649421  0.44407213     0.15900
C1272       C  0.73203065  0.37415870  0.46911388     0.25300
C1273       C  0.71112174  0.36570942  0.48704031    -0.41100
C1274       C  0.68375222  0.37106901  0.47990370     0.32300
C1275       C  0.69136180  0.40108950  0.40853811     0.01000
F1276       F  0.74628525  0.39236420  0.42646878    -0.13400
F1277       F  0.66308232  0.36364690  0.49685861    -0.13900
C1278       C  0.70317454  0.42507491  0.39778332     0.15900
C1279       C  0.69850734  0.43266971  0.37046983     0.25300
C1280       C  0.68198961  0.41636690  0.35334474    -0.41000
C1281       C  0.66918856  0.39311961  0.36459453     0.32200
C1282       C  0.67399938  0.38548274  0.39171397     0.14000
F1283       F  0.71972539  0.44085456  0.41356487    -0.13400
F1284       F  0.65247226  0.37722393  0.34909460    -0.13900
F1285       F  0.71139411  0.45511890  0.36043753    -0.16200
F1286       F  0.66279305  0.36186246  0.40107781    -0.14700
F1287       F  0.65081292  0.38911640  0.44893536    -0.14700
F1288       F  0.75868089  0.36886245  0.47497219    -0.16100
C1289       C  0.60400030  0.31331867  0.62060042     0.13900
C1290       C  0.58403057  0.30849067  0.60054892     0.00900
C1291       C  0.59167852  0.30738945  0.57292341     0.15900
C1292       C  0.61909258  0.31060177  0.56544932     0.25300
C1293       C  0.63921361  0.31507462  0.58554913    -0.41100
C1294       C  0.63130996  0.31670032  0.61320999     0.32300
C1295       C  0.55550943  0.30329853  0.60882054     0.01000
F1296       F  0.57258327  0.30293938  0.55324704    -0.13400
F1297       F  0.65017822  0.31989953  0.63337161    -0.13900
C1298       C  0.54118209  0.32288576  0.62419226     0.15900
C1299       C  0.51545146  0.31672512  0.63483503     0.25300
C1300       C  0.50359811  0.29096397  0.63003976    -0.41000
C1301       C  0.51742899  0.27178363  0.61367873     0.32200
C1302       C  0.54330334  0.27786736  0.60326847     0.14000
F1303       F  0.55252350  0.34767794  0.62957005    -0.13400
F1304       F  0.50694000  0.24636211  0.60965280    -0.13900
F1305       F  0.50242220  0.33564052  0.65047682    -0.16200
F1306       F  0.55722174  0.25826504  0.58933792    -0.14700
F1307       F  0.59723559  0.31340371  0.64752728    -0.14700
F1308       F  0.62596529  0.30910255  0.53861765    -0.16100
C1309       C  0.68313031  0.14165742  0.64253592     0.13900
C1310       C  0.70451628  0.16076964  0.64349943     0.00900
C1311       C  0.72160120  0.16151763  0.66665035     0.15900
C1312       C  0.71613931  0.14476657  0.68923695     0.25300
C1313       C  0.69329258  0.12713272  0.68913936    -0.41100
C1314       C  0.67738032  0.12521683  0.66511014     0.32300
C1315       C  0.70592726  0.18278875  0.62269838     0.01000
F1316       F  0.74250542  0.17975072  0.66815432    -0.13400
F1317       F  0.65523588  0.10850200  0.66376504    -0.13900
C1318       C  0.68308047  0.19992541  0.61907676     0.15900
C1319       C  0.68500607  0.22335710  0.60302169     0.25300
C1320       C  0.70974879  0.23017401  0.59024508    -0.41000
C1321       C  0.73213301  0.21226294  0.59223090     0.32200
C1322       C  0.73025981  0.18864226  0.60845628     0.14000
F1323       F  0.65947174  0.19520664  0.63290654    -0.13400
F1324       F  0.75636755  0.21883332  0.58041638    -0.13900
F1325       F  0.66318435  0.24053063  0.60147622    -0.16200
F1326       F  0.75246989  0.17218183  0.61122842    -0.14700
F1327       F  0.66682402  0.13993677  0.62010651    -0.14700
F1328       F  0.73271264  0.14654936  0.71146605    -0.16100
C1329       C  0.81945224  0.28840862  0.66627519     0.13900
C1330       C  0.84619896  0.29574383  0.65880430     0.00900
C1331       C  0.85062128  0.30871767  0.63357133     0.15900
C1332       C  0.82856566  0.31426507  0.61609219     0.25300
C1333       C  0.80175707  0.30671690  0.62354915    -0.41100
C1334       C  0.79753248  0.29365205  0.64884998     0.32300
C1335       C  0.86874355  0.29133363  0.67855849     0.01000
F1336       F  0.87627348  0.31601820  0.62588734    -0.13400
F1337       F  0.77199315  0.28689603  0.65742150    -0.13900
C1338       C  0.87281620  0.26525280  0.69005167     0.15900
C1339       C  0.88868619  0.26225578  0.71362609     0.25300
C1340       C  0.90109698  0.28516036  0.72563270    -0.41000
C1341       C  0.89916074  0.31074350  0.71280492     0.32200
C1342       C  0.88307842  0.31385368  0.68933941     0.14000
F1343       F  0.85963222  0.24308928  0.67967611    -0.13400
F1344       F  0.91063630  0.33316612  0.72454482    -0.13900
F1345       F  0.88995460  0.23748258  0.72611478    -0.16200
F1346       F  0.87929308  0.33930734  0.67888371    -0.14700
F1347       F  0.81433274  0.27713284  0.69111610    -0.14700
F1348       F  0.83349568  0.32695209  0.59191634    -0.16100
C1349       C  0.74629371  0.44591379  0.62146455     0.13900
C1350       C  0.74443702  0.44387886  0.65008632     0.00900
C1351       C  0.73621087  0.41905083  0.66175093     0.15900
C1352       C  0.73156906  0.39614378  0.64530136     0.25300
C1353       C  0.73534263  0.39745122  0.61662754    -0.41100
C1354       C  0.74178193  0.42294221  0.60484543     0.32300
C1355       C  0.75479533  0.46618893  0.66787190     0.01000
F1356       F  0.73458339  0.41638770  0.68933247    -0.13400
F1357       F  0.74479261  0.42549777  0.57739240    -0.13900
C1358       C  0.73810513  0.47884024  0.68758504     0.15900
C1359       C  0.74900238  0.49863081  0.70538513     0.25300
C1360       C  0.77688687  0.50598676  0.70383203    -0.41000
C1361       C  0.79341415  0.49302697  0.68395813     0.32200
C1362       C  0.78248536  0.47341172  0.66635578     0.14000
F1363       F  0.71128906  0.47193005  0.68965245    -0.13400
F1364       F  0.82053408  0.49864489  0.68183133    -0.13900
F1365       F  0.73228923  0.51033277  0.72420570    -0.16200
F1366       F  0.79935920  0.46053825  0.64843174    -0.14700
F1367       F  0.75356623  0.46998467  0.60970614    -0.14700
F1368       F  0.72481995  0.37231671  0.65787796    -0.16100
C1369       C  0.85131553  0.34122005  0.27006085     0.13900
C1370       C  0.83308644  0.35145003  0.28981885     0.00900
C1371       C  0.83741490  0.34503532  0.31752200     0.15900
C1372       C  0.85847906  0.32726919  0.32512946     0.25300
C1373       C  0.87555566  0.31573616  0.30523906    -0.41100
C1374       C  0.87241682  0.32337010  0.27774484     0.32300
C1375       C  0.80806284  0.36656678  0.28169833     0.01000
F1376       F  0.81987035  0.35420362  0.33698185    -0.13400
F1377       F  0.88843511  0.31191157  0.25816829    -0.13900
C1378       C  0.78806890  0.35381547  0.26539287     0.15900
C1379       C  0.76267187  0.36638307  0.26101434     0.25300
C1380       C  0.75677462  0.39201902  0.27289696    -0.41000
C1381       C  0.77743958  0.40522223  0.28823516     0.32200
C1382       C  0.80273800  0.39259170  0.29254991     0.14000
F1383       F  0.79257918  0.32847143  0.25490869    -0.13400
F1384       F  0.77288907  0.42986430  0.30025085    -0.13900
F1385       F  0.74366559  0.35304714  0.24574759    -0.16200
F1386       F  0.82185397  0.40546774  0.30807737    -0.14700
F1387       F  0.84787173  0.34752675  0.24325370    -0.14700
F1388       F  0.86091528  0.31960015  0.35169463    -0.16100
C1389       C  0.83047014  0.24165408  0.41468001     0.13900
C1390       C  0.84206432  0.25359382  0.43815491     0.00900
C1391       C  0.87043755  0.25842867  0.43878299     0.15900
C1392       C  0.88655876  0.25323118  0.41573644     0.25300
C1393       C  0.87473839  0.24248852  0.39177671    -0.41100
C1394       C  0.84666037  0.23600699  0.39177211     0.32300
C1395       C  0.82422140  0.26384140  0.46054108     0.01000
F1396       F  0.88240125  0.26908532  0.46148108    -0.13400
F1397       F  0.83434355  0.22630961  0.36883718    -0.13900
C1398       C  0.80504584  0.24666829  0.47345767     0.15900
C1399       C  0.78682169  0.25734951  0.49288420     0.25300
C1400       C  0.78799606  0.28517834  0.50013474    -0.41000
C1401       C  0.80751248  0.30212788  0.48768748     0.32200
C1402       C  0.82522798  0.29166577  0.46791331     0.14000
F1403       F  0.80402107  0.21958904  0.46729471    -0.13400
F1404       F  0.80845759  0.32926242  0.49364432    -0.13900
F1405       F  0.76828240  0.24049676  0.50483325    -0.16200
F1406       F  0.84258988  0.30908382  0.45505065    -0.14700
F1407       F  0.80307906  0.23729814  0.41314065    -0.14700
F1408       F  0.91361502  0.25948027  0.41660449    -0.16100
C1409       C  0.02861795  0.32499548  0.28317810     0.13900
C1410       C  0.03151724  0.32800436  0.25484045     0.00900
C1411       C  0.01601040  0.31126093  0.23727791     0.15900
C1412       C  0.99744082  0.29215635  0.24800110     0.25300
C1413       C  0.99409753  0.28958707  0.27650011    -0.41100
C1414       C  0.01022069  0.30609624  0.29390096     0.32300
C1415       C  0.05206990  0.34757002  0.24420071     0.01000
F1416       F  0.01862783  0.31367115  0.20976699    -0.13400
F1417       F  0.00869021  0.30370842  0.32151605    -0.13900
C1418       C  0.07471750  0.33789371  0.22953883     0.15900
C1419       C  0.09673018  0.35521970  0.22390256     0.25300
C1420       C  0.09672484  0.38262856  0.23313893    -0.41000
C1421       C  0.07308550  0.39277073  0.24619228     0.32200
C1422       C  0.05099953  0.37535765  0.25165862     0.14000
F1423       F  0.07647716  0.31107492  0.22246186    -0.13400
F1424       F  0.07191813  0.41900987  0.25527125    -0.13900
F1425       F  0.11867440  0.34459491  0.21060620    -0.16200
F1426       F  0.02904317  0.38529165  0.26547012    -0.14700
F1427       F  0.04426121  0.33994297  0.30063266    -0.14700
F1428       F  0.98251135  0.27657142  0.23050790    -0.16100
C1429       C  0.85179128  0.23535883  0.19373853     0.13900
C1430       C  0.86401909  0.21883262  0.17377171     0.00900
C1431       C  0.89016390  0.20793560  0.17859855     0.15900
C1432       C  0.90326817  0.21225007  0.20377043     0.25300
C1433       C  0.89015745  0.22727855  0.22466762    -0.41100
C1434       C  0.86464185  0.23960358  0.21886179     0.32300
C1435       C  0.84741143  0.20987830  0.15011932     0.01000
F1436       F  0.90247713  0.19219911  0.15931813    -0.13400
F1437       F  0.85125085  0.25472378  0.23793235    -0.13900
C1438       C  0.83819708  0.22886063  0.13056101     0.15900
C1439       C  0.81762036  0.22155285  0.11194284     0.25300
C1440       C  0.80606699  0.19526639  0.11282867    -0.41000
C1441       C  0.81614700  0.17597563  0.13150104     0.32200
C1442       C  0.83681500  0.18315712  0.14990160     0.14000
F1443       F  0.84801342  0.25484880  0.13059537    -0.13400
F1444       F  0.80461579  0.15074874  0.13312431    -0.13900
F1445       F  0.80761087  0.24064085  0.09442254    -0.16200
F1446       F  0.84480645  0.16475933  0.16910973    -0.14700
F1447       F  0.82635028  0.24579236  0.18965037    -0.14700
F1448       F  0.92809847  0.20054333  0.20805085    -0.16100
C1449       C  0.35929327  0.15698318  0.71118527     0.13900
C1450       C  0.33786765  0.15130943  0.69282244     0.00900
C1451       C  0.33767104  0.16375854  0.66698615     0.15900
C1452       C  0.35733477  0.18327942  0.66040351     0.25300
C1453       C  0.37770888  0.19026585  0.67936019    -0.41100
C1454       C  0.37935779  0.17627106  0.70434697     0.32300
C1455       C  0.31349081  0.13590132  0.70158496     0.01000
F1456       F  0.31705289  0.15872201  0.64904795    -0.13400
F1457       F  0.39889495  0.18296987  0.72293547    -0.13900
C1458       C  0.29521985  0.14798814  0.72010724     0.15900
C1459       C  0.26954168  0.13634453  0.72473665     0.25300
C1460       C  0.26172582  0.11219847  0.71098639    -0.41000
C1461       C  0.28069416  0.09952581  0.69326462     0.32200
C1462       C  0.30627034  0.11140685  0.68853191     0.14000
F1463       F  0.30163141  0.17205900  0.73244831    -0.13400
F1464       F  0.27407404  0.07640706  0.67934199    -0.13900
F1465       F  0.25211587  0.14921766  0.74211058    -0.16200
F1466       F  0.32362111  0.09960594  0.67034692    -0.14700
F1467       F  0.35984188  0.14499892  0.73620237    -0.14700
F1468       F  0.35553148  0.19668404  0.63615097    -0.16100
C1469       C  0.17905720  0.18001108  0.82138185     0.13900
C1470       C  0.19738806  0.17335135  0.84235648     0.00900
C1471       C  0.20740747  0.14654018  0.84460033     0.15900
C1472       C  0.19996933  0.12672823  0.82522439     0.25300
C1473       C  0.18256268  0.13372664  0.80340318    -0.41100
C1474       C  0.17156941  0.16038303  0.80215281     0.32300
C1475       C  0.20680153  0.19516779  0.86078530     0.01000
F1476       F  0.22506593  0.13989744  0.86496823    -0.13400
F1477       F  0.15384867  0.16762861  0.78198613    -0.13900
C1478       C  0.19186792  0.20145008  0.88438703     0.15900
C1479       C  0.19732219  0.22551030  0.89887584     0.25300
C1480       C  0.21758624  0.24378349  0.88960041    -0.41000
C1481       C  0.23374084  0.23637996  0.86691854     0.32200
C1482       C  0.22826678  0.21228619  0.85257457     0.14000
F1483       F  0.17078764  0.18520620  0.89226903    -0.13400
F1484       F  0.25403320  0.25304277  0.85786270    -0.13900
F1485       F  0.18127168  0.23190975  0.92059194    -0.16200
F1486       F  0.24278910  0.20647728  0.82964134    -0.14700
F1487       F  0.16903657  0.20585273  0.81909718    -0.14700
F1488       F  0.21093398  0.10128930  0.82694224    -0.16100
C1489       C  0.05960371  0.13664989  0.77174179     0.13900
C1490       C  0.05008642  0.15548035  0.75230477     0.00900
C1491       C  0.06279663  0.15650727  0.72653196     0.15900
C1492       C  0.08529154  0.13962448  0.72068174     0.25300
C1493       C  0.09532829  0.12120841  0.74047110    -0.41100
C1494       C  0.08166682  0.11954555  0.76587656     0.32300
C1495       C  0.02806488  0.17500279  0.75990058     0.01000
F1496       F  0.05368258  0.17419809  0.70717217    -0.13400
F1497       F  0.09048326  0.10245014  0.78591863    -0.13900
C1498       C  0.03283021  0.20333369  0.75895334     0.15900
C1499       C  0.01343740  0.22172463  0.76919340     0.25300
C1500       C  0.98887043  0.21215904  0.78090154    -0.41000
C1501       C  0.98377121  0.18373360  0.78097736     0.32200
C1502       C  0.00313904  0.16541866  0.77052569     0.14000
F1503       F  0.05697219  0.21320956  0.74946057    -0.13400
F1504       F  0.96021642  0.17347396  0.79149891    -0.13900
F1505       F  0.01939271  0.24885494  0.76866002    -0.16200
F1506       F  0.99775551  0.13816327  0.77123668    -0.14700
F1507       F  0.04850692  0.13586141  0.79717240    -0.14700
F1508       F  0.09759099  0.14184711  0.69592335    -0.16100
C1509       C  0.26597335  0.93099261  0.83641119     0.13900
C1510       C  0.24547834  0.95061927  0.84112793     0.00900
C1511       C  0.22870771  0.94785027  0.86438717     0.15900
C1512       C  0.23144956  0.92513485  0.88169750     0.25300
C1513       C  0.25068013  0.90453833  0.87578026    -0.41100
C1514       C  0.26838320  0.90809436  0.85337341     0.32300
C1515       C  0.23985683  0.97233071  0.82050029     0.01000
F1516       F  0.20839850  0.96615548  0.86934961    -0.13400
F1517       F  0.28768615  0.88898968  0.84746286    -0.13900
C1518       C  0.23457786  0.96509944  0.79308789     0.15900
C1519       C  0.22628484  0.98490360  0.77415755     0.25300
C1520       C  0.22252857  0.01212850  0.78236844    -0.41000
C1521       C  0.22865066  0.01965628  0.80940894     0.32200
C1522       C  0.23768007  0.00000314  0.82823857     0.14000
F1523       F  0.23558218  0.93851964  0.78503965    -0.13400
F1524       F  0.22506053  0.04589728  0.81775909    -0.13900
F1525       F  0.21974727  0.97708832  0.74832211    -0.16200
F1526       F  0.24362592  0.00786164  0.85419932    -0.14700
F1527       F  0.28322859  0.93360862  0.81484570    -0.14700
F1528       F  0.21390712  0.92231733  0.90300515    -0.16100
C1529       C  0.32400214  0.22433307  0.33777382     0.13900
C1530       C  0.34433000  0.20428748  0.33417481     0.00900
C1531       C  0.34378254  0.18066172  0.35052637     0.15900
C1532       C  0.32231877  0.17628493  0.36886893     0.25300
C1533       C  0.30098909  0.19556228  0.37123691    -0.41100
C1534       C  0.30265020  0.22011162  0.35626332     0.32300
C1535       C  0.36379353  0.20647082  0.31107314     0.01000
F1536       F  0.36349977  0.16124862  0.34789106    -0.13400
F1537       F  0.28319073  0.23978917  0.35891572    -0.13900
C1538       C  0.38021001  0.22989247  0.30755194     0.15900
C1539       C  0.39522629  0.23349435  0.28341951     0.25300
C1540       C  0.39391592  0.21371682  0.26264929    -0.41000
C1541       C  0.37890794  0.18961222  0.26689919     0.32200
C1542       C  0.36389286  0.18604420  0.29081129     0.14000
F1543       F  0.38084046  0.24969598  0.32701710    -0.13400
F1544       F  0.37790194  0.16995178  0.24726142    -0.13900
F1545       F  0.40935266  0.25708024  0.27951785    -0.16200
F1546       F  0.34792099  0.16344677  0.29327803    -0.14700
F1547       F  0.32379151  0.24725179  0.32209800    -0.14700
F1548       F  0.32167943  0.15243407  0.38307470    -0.16100
C1549       C  0.25594524  0.06069661  0.36844626     0.13900
C1550       C  0.24047842  0.05804173  0.34427785     0.00900
C1551       C  0.21979091  0.07735901  0.33893940     0.15900
C1552       C  0.21613603  0.09997120  0.35619460     0.25300
C1553       C  0.23288304  0.10365222  0.37937994    -0.41100
C1554       C  0.25211560  0.08320232  0.38589603     0.32300
C1555       C  0.24828139  0.03730922  0.32323193     0.01000
F1556       F  0.20371441  0.07484677  0.31642327    -0.13400
F1557       F  0.26877975  0.08605359  0.40793205    -0.13900
C1558       C  0.25027214  0.00927829  0.32966325     0.15900
C1559       C  0.26121481  0.99060242  0.31069943     0.25300
C1560       C  0.26995852  0.99956072  0.28479285    -0.41000
C1561       C  0.26658246  0.02735134  0.27793158     0.32200
C1562       C  0.25605230  0.04598719  0.29694659     0.14000
F1563       F  0.24167436  0.00002495  0.35435375    -0.13400
F1564       F  0.27489801  0.03687796  0.25323305    -0.13900
F1565       F  0.26304576  0.96375181  0.31756862    -0.16200
F1566       F  0.25479318  0.07288349  0.29007977    -0.14700
F1567       F  0.27623431  0.04258287  0.37412539    -0.14700
F1568       F  0.19671416  0.11878418  0.34972657    -0.16100
C1569       C  0.32967442  0.23773087  0.50109583     0.13900
C1570       C  0.32252577  0.24273318  0.52843951     0.00900
C1571       C  0.29530875  0.23858528  0.53673068     0.15900
C1572       C  0.27578029  0.22858324  0.51826383     0.25300
C1573       C  0.28320483  0.22231972  0.49116570    -0.41100
C1574       C  0.31020307  0.22768857  0.48260892     0.32300
C1575       C  0.34372118  0.24997137  0.54896583     0.01000
F1576       F  0.28801527  0.24275825  0.56318113    -0.13400
F1577       F  0.31782499  0.22302244  0.45633249    -0.13900
C1578       C  0.34201178  0.27446611  0.56389819     0.15900
C1579       C  0.35977880  0.27938908  0.58588009     0.25300
C1580       C  0.37952756  0.25971965  0.59350404    -0.41000
C1581       C  0.38218989  0.23590748  0.57730862     0.32200
C1582       C  0.36448026  0.23115396  0.55532453     0.14000
F1583       F  0.32262488  0.29334084  0.55757829    -0.13400
F1584       F  0.40088099  0.21630790  0.58356222    -0.13900
F1585       F  0.35695671  0.30302494  0.60020788    -0.16200
F1586       F  0.36654510  0.20727051  0.54125644    -0.14700
F1587       F  0.35567228  0.24215647  0.49242540    -0.14700
F1588       F  0.25005559  0.22351515  0.52738328    -0.16100
C1589       C  0.08753213  0.18991756  0.41855985     0.13900
C1590       C  0.07930980  0.19125999  0.39100337     0.00900
C1591       C  0.09941404  0.18970903  0.37048941     0.15900
C1592       C  0.12709870  0.18738283  0.37729487     0.25300
C1593       C  0.13546127  0.18704246  0.40482885    -0.41100
C1594       C  0.11538113  0.18804648  0.42541634     0.32300
C1595       C  0.05021583  0.19607368  0.38320727     0.01000
F1596       F  0.09237170  0.19191774  0.34371985    -0.13400
F1597       F  0.12272372  0.18724082  0.45217477    -0.13900
C1598       C  0.03622044  0.21948173  0.39252900     0.15900
C1599       C  0.01091575  0.22685841  0.38112873     0.25300
C1600       C  0.99935542  0.21117136  0.35989951    -0.41000
C1601       C  0.01233210  0.18660140  0.35219684     0.32200
C1602       C  0.03738450  0.17906006  0.36386213     0.14000
F1603       F  0.04797571  0.23637141  0.41119220    -0.13400
F1604       F  0.00116378  0.17023516  0.33270870    -0.13900
F1605       F  0.99887665  0.25050632  0.38937052    -0.16200
F1606       F  0.04969629  0.15560150  0.35545586    -0.14700
F1607       F  0.06860753  0.19055846  0.43883019    -0.14700
F1608       F  0.14584735  0.18718766  0.35683060    -0.16100
C1609       C  0.18543413  0.07622923  0.58993311     0.13900
C1610       C  0.18120474  0.10311793  0.58064143     0.00900
C1611       C  0.17307651  0.12327491  0.59935586     0.15900
C1612       C  0.17073800  0.11717694  0.62711432     0.25300
C1613       C  0.17663509  0.09064407  0.63697083    -0.41100
C1614       C  0.18300353  0.06994813  0.61784354     0.32300
C1615       C  0.18825305  0.11140104  0.55235021     0.01000
F1616       F  0.16914978  0.14947873  0.59097716    -0.13400
F1617       F  0.18818120  0.04396387  0.62617920    -0.13900
C1618       C  0.16846213  0.12318727  0.53515743     0.15900
C1619       C  0.17622315  0.13613872  0.51081325     0.25300
C1620       C  0.20404708  0.13765766  0.50327956    -0.41000
C1621       C  0.22359106  0.12429083  0.51980927     0.32200
C1622       C  0.21574245  0.11134914  0.54407354     0.14000
F1623       F  0.14168096  0.12300912  0.54249935    -0.13400
F1624       F  0.25063208  0.12522184  0.51354934    -0.13900
F1625       F  0.15655157  0.14775240  0.49500470    -0.16200
F1626       F  0.23531614  0.10049167  0.56053973    -0.14700
F1627       F  0.19276444  0.05626311  0.57207097    -0.14700
F1628       F  0.16382766  0.13779266  0.64442220    -0.16100
C1629       C  0.21708398  0.34363840  0.32435986     0.13900
C1630       C  0.20024810  0.34398242  0.34758799     0.00900
C1631       C  0.17887526  0.36318892  0.34899327     0.15900
C1632       C  0.17313250  0.38036009  0.32676717     0.25300
C1633       C  0.18871194  0.37864165  0.30255359    -0.41100
C1634       C  0.21147487  0.36078456  0.30212760     0.32300
C1635       C  0.20196184  0.32135328  0.36781228     0.01000
F1636       F  0.16275675  0.36442115  0.37154112    -0.13400
F1637       F  0.22786757  0.35905386  0.27980550    -0.13900
C1638       C  0.22603302  0.31601104  0.38280970     0.15900
C1639       C  0.22835066  0.29198157  0.39850120     0.25300
C1640       C  0.20675912  0.27299038  0.39901170    -0.41000
C1641       C  0.18234759  0.27910168  0.38515977     0.32200
C1642       C  0.17993428  0.30301112  0.36979943     0.14000
F1643       F  0.24757720  0.33347276  0.38137027    -0.13400
F1644       F  0.16126076  0.26100600  0.38529327    -0.13900
F1645       F  0.25226876  0.28631567  0.41145829    -0.16200
F1646       F  0.15672516  0.30720775  0.35509968    -0.14700
F1647       F  0.23788785  0.32531678  0.32236588    -0.14700
F1648       F  0.15153985  0.39774395  0.32865140    -0.16100
C1649       C  0.15725702  0.68545072  0.70739054     0.13900
C1650       C  0.15970393  0.66370169  0.68876959     0.00900
C1651       C  0.14215772  0.66277963  0.66603165     0.15900
C1652       C  0.12301196  0.68368339  0.66151441     0.25300
C1653       C  0.12132535  0.70623408  0.67949035    -0.41100
C1654       C  0.13831729  0.70651225  0.70283390     0.32300
C1655       C  0.18268792  0.64397934  0.69142851     0.01000
F1656       F  0.14411382  0.64194477  0.64776136    -0.13400
F1657       F  0.13694001  0.72736888  0.72114271    -0.13900
C1658       C  0.18429884  0.62558671  0.71352626     0.15900
C1659       C  0.20789953  0.60957785  0.71755583     0.25300
C1660       C  0.23030177  0.61216112  0.69977716    -0.41000
C1661       C  0.22800037  0.62961750  0.67694881     0.32200
C1662       C  0.20443301  0.64524904  0.67279038     0.14000
F1663       F  0.16332379  0.62373264  0.73156865    -0.13400
F1664       F  0.24903786  0.63218663  0.65900094    -0.13900
F1665       F  0.20954829  0.59297429  0.73971650    -0.16200
F1666       F  0.20346068  0.66283765  0.65132258    -0.14700
F1667       F  0.17422287  0.68699584  0.72933445    -0.14700
F1668       F  0.10703438  0.68238371  0.63882991    -0.16100
C1669       C  0.17652391  0.75843508  0.50557771     0.13900
C1670       C  0.16301730  0.74162402  0.52463810     0.00900
C1671       C  0.16944905  0.71363414  0.52540577     0.15900
C1672       C  0.18902415  0.70262479  0.50771434     0.25300
C1673       C  0.20277873  0.71933548  0.48859870    -0.41100
C1674       C  0.19618309  0.74740635  0.48767207     0.32300
C1675       C  0.14332252  0.75311503  0.54488123     0.01000
F1676       F  0.15730999  0.69696776  0.54398528    -0.13400
F1677       F  0.20830270  0.76408010  0.46911210    -0.13900
C1678       C  0.11628486  0.74335047  0.54626953     0.15900
C1679       C  0.09901321  0.75106460  0.56786740     0.25300
C1680       C  0.10851279  0.76857599  0.58878807    -0.41000
C1681       C  0.13516726  0.77953481  0.58637727     0.32200
C1682       C  0.15230934  0.77184770  0.56471993     0.14000
F1683       F  0.10692306  0.72544556  0.52719585    -0.13400
F1684       F  0.14526857  0.79676696  0.60568875    -0.13900
F1685       F  0.07360556  0.73993220  0.56911618    -0.16200
F1686       F  0.17841769  0.78130921  0.56416852    -0.14700
F1687       F  0.17040277  0.78548935  0.50409847    -0.14700
F1688       F  0.19494241  0.67554742  0.50988462    -0.16100
C1689       C  0.12822839  0.95608909  0.68361345     0.13900
C1690       C  0.10284155  0.94972616  0.69542557     0.00900
C1691       C  0.09147961  0.96815106  0.71448529     0.15900
C1692       C  0.10581250  0.99173345  0.72247478     0.25300
C1693       C  0.13173285  0.99760006  0.71130738    -0.41100
C1694       C  0.14235476  0.97974013  0.69120969     0.32300
C1695       C  0.08989925  0.92264647  0.68981317     0.01000
F1696       F  0.06661470  0.96310027  0.72573782    -0.13400
F1697       F  0.16688366  0.98463261  0.67916168    -0.13900
C1698       C  0.08336496  0.90519347  0.71167409     0.15900
C1699       C  0.07425487  0.87856160  0.70677251     0.25300
C1700       C  0.07305142  0.86807955  0.67998552    -0.41000
C1701       C  0.07873941  0.88560433  0.65799114     0.32200
C1702       C  0.08644687  0.91289912  0.66284790     0.14000
F1703       F  0.08748533  0.91325871  0.73792993    -0.13400
F1704       F  0.07670140  0.87636020  0.63190572    -0.13900
F1705       F  0.06823027  0.86240746  0.72850676    -0.16200
F1706       F  0.09101146  0.92969188  0.64123834    -0.14700
F1707       F  0.14021587  0.93862247  0.66564994    -0.14700
F1708       F  0.09454707  0.00834535  0.74166840    -0.16100
C1709       C  0.96884492  0.67337355  0.70226017     0.13900
C1710       C  0.96193532  0.67489672  0.73015709     0.00900
C1711       C  0.97461840  0.69502403  0.74644898     0.15900
C1712       C  0.99295063  0.71384842  0.73484499     0.25300
C1713       C  0.99938860  0.71259075  0.70681968    -0.41100
C1714       C  0.98748106  0.69184335  0.69078784     0.32300
C1715       C  0.94001194  0.65681549  0.74139081     0.01000
F1716       F  0.96917204  0.69651815  0.77361074    -0.13400
F1717       F  0.99262826  0.69040120  0.66355693    -0.13900
C1718       C  0.94116184  0.62823936  0.73780252     0.15900
C1719       C  0.91849607  0.61178424  0.74405945     0.25300
C1720       C  0.89432715  0.62346516  0.75452714    -0.41000
C1721       C  0.89390445  0.65179938  0.75992183     0.32200
C1722       C  0.91642917  0.66828798  0.75329112     0.14000
F1723       F  0.96400915  0.61633317  0.72742528    -0.13400
F1724       F  0.87083792  0.66400372  0.76943557    -0.13900
F1725       F  0.91990091  0.58447448  0.73910810    -0.16200
F1726       F  0.91436182  0.69579740  0.75664837    -0.14700
F1727       F  0.95644213  0.65483241  0.68569302    -0.14700
F1728       F  0.00448714  0.73326491  0.75103751    -0.16100
C1729       C  0.09943442  0.78402936  0.80460654     0.13900
C1730       C  0.11892219  0.80499897  0.80768231     0.00900
C1731       C  0.12313253  0.82346029  0.78619133     0.15900
C1732       C  0.10964067  0.81993154  0.76134274     0.25300
C1733       C  0.09093627  0.79827446  0.75764059    -0.41100
C1734       C  0.08516114  0.78094238  0.77983710     0.32300
C1735       C  0.13772409  0.80588168  0.83140826     0.01000
F1736       F  0.14181155  0.84389668  0.78863703    -0.13400
F1737       F  0.06718903  0.75996711  0.77697443    -0.13900
C1738       C  0.15809351  0.78578565  0.83397303     0.15900
C1739       C  0.17981076  0.78937015  0.85228415     0.25300
C1740       C  0.18154643  0.81318953  0.86846511    -0.41000
C1741       C  0.15997690  0.83239601  0.86720541     0.32200
C1742       C  0.13842154  0.82885411  0.84864590     0.14000
F1743       F  0.15799711  0.76357217  0.81728066    -0.13400
F1744       F  0.16050383  0.85549272  0.88265267    -0.13900
F1745       F  0.19959985  0.76989515  0.85346270    -0.16200
F1746       F  0.11890909  0.84853650  0.84650862    -0.14700
F1747       F  0.09499935  0.76602957  0.82523702    -0.14700
F1748       F  0.11575993  0.83721947  0.74051400    -0.16100
C1749       C  0.86761361  0.04630681  0.31708870     0.13900
C1750       C  0.88286950  0.06127432  0.29788706     0.00900
C1751       C  0.88811760  0.04958553  0.27218052     0.15900
C1752       C  0.87704501  0.02417382  0.26516992     0.25300
C1753       C  0.85988711  0.01006266  0.28356680    -0.41100
C1754       C  0.85613305  0.02101517  0.30999626     0.32300
C1755       C  0.89090368  0.09008224  0.30335297     0.01000
F1756       F  0.90242451  0.06364909  0.25300982    -0.13400
F1757       F  0.84061244  0.00776290  0.32880326    -0.13900
C1758       C  0.91800270  0.09885060  0.29945454     0.15900
C1759       C  0.92464226  0.12669598  0.30081087     0.25300
C1760       C  0.90424868  0.14639539  0.30631692    -0.41000
C1761       C  0.87736095  0.13731628  0.31154926     0.32200
C1762       C  0.87077555  0.10954473  0.30993796     0.14000
F1763       F  0.93800262  0.08044641  0.29366998    -0.13400
F1764       F  0.85703059  0.15532708  0.31748680    -0.13900
F1765       F  0.95081799  0.13433684  0.29562788    -0.16200
F1766       F  0.84430390  0.10186001  0.31334840    -0.14700
F1767       F  0.86311696  0.05661288  0.34247293    -0.14700
F1768       F  0.88184754  0.01433013  0.23967084    -0.16100
C1769       C  0.81534658  0.79742704  0.12298468     0.13900
C1770       C  0.79498868  0.81764222  0.12106101     0.00900
C1771       C  0.77199134  0.81297532  0.10435849     0.15900
C1772       C  0.76885448  0.78792144  0.09075731     0.25300
C1773       C  0.78850213  0.76722892  0.09402819    -0.41100
C1774       C  0.81204370  0.77236188  0.10971534     0.32300
C1775       C  0.79608001  0.84141536  0.13975816     0.01000
F1776       F  0.75202733  0.83218794  0.10230124    -0.13400
F1777       F  0.83139128  0.75265310  0.11299046    -0.13900
C1778       C  0.81838408  0.85954630  0.13934343     0.15900
C1779       C  0.82212485  0.87841662  0.16059732     0.25300
C1780       C  0.80372442  0.87922404  0.18275194    -0.41000
C1781       C  0.78031101  0.86231766  0.18193048     0.32200
C1782       C  0.77664963  0.84360155  0.16070141     0.14000
F1783       F  0.83714636  0.85809915  0.11895970    -0.13400
F1784       F  0.76144004  0.86298233  0.20225600    -0.13900
F1785       F  0.84461198  0.89472870  0.16014631    -0.16200
F1786       F  0.75505237  0.82614840  0.16171982    -0.14700
F1787       F  0.83748801  0.80120135  0.13936313    -0.14700
F1788       F  0.74570567  0.78309157  0.07617183    -0.16100
C1789       C  0.91526298  0.83840356  0.25627511     0.13900
C1790       C  0.93923904  0.84923649  0.24475210     0.00900
C1791       C  0.94072981  0.87771610  0.24029730     0.15900
C1792       C  0.91784851  0.89450312  0.24467881     0.25300
C1793       C  0.89313327  0.88324668  0.25424669    -0.41100
C1794       C  0.89271906  0.85523877  0.26145156     0.32300
C1795       C  0.96113923  0.83058004  0.23444112     0.01000
F1796       F  0.96408812  0.88915547  0.23060232    -0.13400
F1797       F  0.86997685  0.84361236  0.27233404    -0.13900
C1798       C  0.96967072  0.83265813  0.20712118     0.15900
C1799       C  0.98876578  0.81438741  0.19632975     0.25300
C1800       C  0.99944011  0.79273880  0.21230371    -0.41000
C1801       C  0.99096888  0.79065734  0.23976179     0.32200
C1802       C  0.97223132  0.80953101  0.25076731     0.14000
F1803       F  0.95857511  0.85177137  0.19027081    -0.13400
F1804       F  0.00049306  0.77021448  0.25595618    -0.13900
F1805       F  0.99617344  0.81775186  0.16979972    -0.16200
F1806       F  0.96489073  0.80716677  0.27740756    -0.14700
F1807       F  0.91278050  0.81109476  0.26072113    -0.14700
F1808       F  0.91959822  0.92146238  0.23822503    -0.16100
C1809       C  0.78388132  0.03222298  0.16331062     0.13900
C1810       C  0.75677984  0.04099342  0.16732741     0.00900
C1811       C  0.74121010  0.02897873  0.18824073     0.15900
C1812       C  0.75278228  0.00905075  0.20534839     0.25300
C1813       C  0.78012944  0.00070595  0.20176316    -0.41100
C1814       C  0.79544935  0.01224833  0.18032220     0.32300
C1815       C  0.74571119  0.06414418  0.15102669     0.01000
F1816       F  0.71481831  0.03668914  0.19215025    -0.13400
F1817       F  0.82210060  0.00527085  0.17672604    -0.13900
C1818       C  0.74217502  0.06175494  0.12260341     0.15900
C1819       C  0.73549093  0.08477800  0.10684283     0.25300
C1820       C  0.73218758  0.11054797  0.11924962    -0.41000
C1821       C  0.73411290  0.11255979  0.14789712     0.32200
C1822       C  0.74088042  0.08955589  0.16361840     0.14000
F1823       F  0.74590608  0.03725173  0.11005532    -0.13400
F1824       F  0.73165410  0.13721466  0.16049034    -0.13900
F1825       F  0.73284084  0.08207290  0.07934674    -0.16200
F1826       F  0.74451593  0.09247051  0.19098694    -0.14700
F1827       F  0.79955937  0.04394853  0.14365011    -0.14700
F1828       F  0.73719687  0.99777666  0.22533485    -0.16100
C1829       C  0.66303417  0.82661266  0.27785833     0.13900
C1830       C  0.65854688  0.85238987  0.28971902     0.00900
C1831       C  0.63605391  0.85609612  0.30714455     0.15900
C1832       C  0.61823548  0.83434898  0.31258560     0.25300
C1833       C  0.62263038  0.80839298  0.30064574    -0.41100
C1834       C  0.64532997  0.80488022  0.28317609     0.32300
C1835       C  0.67875522  0.87450566  0.28539430     0.01000
F1836       F  0.63142593  0.88079355  0.31900994    -0.13400
F1837       F  0.65099964  0.78022957  0.27164878    -0.13900
C1838       C  0.68560680  0.88294385  0.25875412     0.15900
C1839       C  0.70853624  0.89950463  0.25433637     0.25300
C1840       C  0.72461361  0.90795971  0.27651386    -0.41000
C1841       C  0.71671773  0.90111827  0.30321750     0.32200
C1842       C  0.69389130  0.88456351  0.30767106     0.14000
F1843       F  0.67111131  0.87367209  0.23694632    -0.13400
F1844       F  0.73261080  0.90846419  0.32481136    -0.13900
F1845       F  0.71645214  0.90520501  0.22837029    -0.16200
F1846       F  0.68815321  0.87626648  0.33351866    -0.14700
F1847       F  0.68531395  0.82214655  0.26189565    -0.14700
F1848       F  0.59691108  0.83875677  0.32979099    -0.16100
C1849       C  0.93114696  0.80708209  0.62920412     0.13900
C1850       C  0.92961402  0.80562944  0.60054440     0.00900
C1851       C  0.95327660  0.79857302  0.58573117     0.15900
C1852       C  0.97789439  0.79268909  0.59946508     0.25300
C1853       C  0.97928218  0.79408281  0.62819725    -0.41100
C1854       C  0.95569707  0.80160544  0.64284211     0.32300
C1855       C  0.90275619  0.81006359  0.58681326     0.01000
F1856       F  0.95253319  0.79743480  0.55801528    -0.13400
F1857       F  0.95598670  0.80222906  0.67058907    -0.13900
C1858       C  0.88820632  0.83459366  0.59098432     0.15900
C1859       C  0.86067180  0.83671187  0.58320200     0.25300
C1860       C  0.84741739  0.81458505  0.57053992    -0.41000
C1861       C  0.86252278  0.79088061  0.56436460     0.32200
C1862       C  0.88992646  0.78853912  0.57261487     0.14000
F1863       F  0.90038260  0.85606946  0.60373281    -0.13400
F1864       F  0.85005440  0.76907425  0.55249206    -0.13900
F1865       F  0.84664990  0.86002995  0.58884465    -0.16200
F1866       F  0.90321096  0.76444663  0.56869022    -0.14700
F1867       F  0.90841823  0.81264113  0.64415161    -0.14700
F1868       F  0.00041457  0.78591621  0.58471282    -0.16100
C1869       C  0.79969350  0.87333683  0.38208113     0.13900
C1870       C  0.79385843  0.89293094  0.40237898     0.00900
C1871       C  0.79415898  0.92082435  0.39531771     0.15900
C1872       C  0.79934997  0.92892408  0.36837191     0.25300
C1873       C  0.80502492  0.90931832  0.34805042    -0.41100
C1874       C  0.80560036  0.88143728  0.35534428     0.32300
C1875       C  0.78725721  0.88411398  0.43071942     0.01000
F1876       F  0.78946772  0.94029304  0.41455520    -0.13400
F1877       F  0.81030580  0.86176888  0.33628097    -0.13900
C1878       C  0.80460892  0.86576181  0.44446691     0.15900
C1879       C  0.79742339  0.85548924  0.47005880     0.25300
C1880       C  0.77297691  0.86375292  0.48285867    -0.41000
C1881       C  0.75619835  0.88311440  0.46980859     0.32200
C1882       C  0.76312436  0.89299307  0.44380001     0.14000
F1883       F  0.82843095  0.85737273  0.43290741    -0.13400
F1884       F  0.73217787  0.89097786  0.48130034    -0.13900
F1885       F  0.81419110  0.83686817  0.48210836    -0.16200
F1886       F  0.74545127  0.91000970  0.43076441    -0.14700
F1887       F  0.79852672  0.84616752  0.38781992    -0.14700
F1888       F  0.79867573  0.95598809  0.36215385    -0.16100
C1889       C  0.65470254  0.82344463  0.65780143     0.13900
C1890       C  0.64451298  0.79656552  0.65843826     0.00900
C1891       C  0.65229121  0.77797499  0.63790785     0.15900
C1892       C  0.67082550  0.78598927  0.61756512     0.25300
C1893       C  0.68195283  0.81249700  0.61787588    -0.41100
C1894       C  0.67348802  0.83125115  0.63782231     0.32300
C1895       C  0.62801740  0.78776237  0.68216549     0.01000
F1896       F  0.64257049  0.75195131  0.63808924    -0.13400
F1897       F  0.68428249  0.85684544  0.63852151    -0.13900
C1898       C  0.60258840  0.79999641  0.68737523     0.15900
C1899       C  0.58954628  0.79609284  0.71249343     0.25300
C1900       C  0.60189649  0.77999493  0.73302642    -0.41000
C1901       C  0.62658796  0.76629380  0.72696517     0.32200
C1902       C  0.63948483  0.77016954  0.70174707     0.14000
F1903       F  0.59100852  0.81679467  0.66853418    -0.13400
F1904       F  0.63884780  0.74989743  0.74574970    -0.13900
F1905       F  0.56564937  0.80946190  0.71718280    -0.16200
F1906       F  0.66412686  0.75817655  0.69714973    -0.14700
F1907       F  0.64766874  0.84166077  0.67755663    -0.14700
F1908       F  0.67913636  0.76748847  0.59858053    -0.16100
C1909       C  0.72252378  0.94052704  0.62690688     0.13900
C1910       C  0.74017984  0.94472677  0.64922098     0.00900
C1911       C  0.76316309  0.92759236  0.65201462     0.15900
C1912       C  0.76778176  0.90605349  0.63348666     0.25300
C1913       C  0.74941372  0.90106149  0.61171129    -0.41100
C1914       C  0.72708311  0.91914810  0.60836214     0.32300
C1915       C  0.73354227  0.96615036  0.67002332     0.01000
F1916       F  0.78102015  0.93150539  0.67292739    -0.13400
F1917       F  0.70880264  0.91562335  0.58774218    -0.13900
C1918       C  0.72900005  0.95900680  0.69752624     0.15900
C1919       C  0.71916049  0.97845154  0.71627563     0.25300
C1920       C  0.71337722  0.00544619  0.70786223    -0.41000
C1921       C  0.71921447  0.01285098  0.68064317     0.32200
C1922       C  0.72930751  0.99348182  0.66203365     0.14000
F1923       F  0.73262169  0.93277893  0.70593402    -0.13400
F1924       F  0.71494903  0.03887487  0.67189543    -0.13900
F1925       F  0.71381871  0.97037336  0.74227222    -0.16200
F1926       F  0.73456960  0.00134273  0.63595699    -0.14700
F1927       F  0.69988879  0.95635968  0.62379958    -0.14700
F1928       F  0.78978765  0.88957462  0.63751718    -0.16100
C1929       C  0.76171474  0.70003662  0.63028096     0.13900
C1930       C  0.78459964  0.68468434  0.62222989     0.00900
C1931       C  0.80027488  0.69323662  0.59985605     0.15900
C1932       C  0.79397142  0.71769375  0.58649595     0.25300
C1933       C  0.77228937  0.73422638  0.59589950    -0.41100
C1934       C  0.75572296  0.72480208  0.61736255     0.32300
C1935       C  0.79509242  0.66336250  0.64062662     0.01000
F1936       F  0.82272564  0.67879541  0.59213666    -0.13400
F1937       F  0.73434024  0.74003128  0.62647400    -0.13900
C1938       C  0.78304195  0.63731885  0.64182484     0.15900
C1939       C  0.79087115  0.61885541  0.66232062     0.25300
C1940       C  0.81044472  0.62662104  0.68193297    -0.41000
C1941       C  0.82303834  0.65239587  0.68000718     0.32200
C1942       C  0.81554882  0.67051892  0.65939969     0.14000
F1943       F  0.76301313  0.63030995  0.62390092    -0.13400
F1944       F  0.84196664  0.66040774  0.69873085    -0.13900
F1945       F  0.77795188  0.59434435  0.66423602    -0.16200
F1946       F  0.82711267  0.69578359  0.65869497    -0.14700
F1947       F  0.74644489  0.69200894  0.65199880    -0.14700
F1948       F  0.81042665  0.72623526  0.56586568    -0.16100
C1949       C  0.65216075  0.73796359  0.41518733     0.13900
C1950       C  0.63970418  0.74752309  0.43914488     0.00900
C1951       C  0.61113190  0.75099928  0.43961421     0.15900
C1952       C  0.59555187  0.74712015  0.41582874     0.25300
C1953       C  0.60837003  0.73984797  0.39108158    -0.41100
C1954       C  0.63673984  0.73401273  0.39147083     0.32300
C1955       C  0.65704623  0.75815136  0.46166972     0.01000
F1956       F  0.59852440  0.75949295  0.46282932    -0.13400
F1957       F  0.65016668  0.72612802  0.36848415    -0.13900
C1958       C  0.65652085  0.78624649  0.46743221     0.15900
C1959       C  0.67510800  0.79767452  0.48580791     0.25300
C1960       C  0.69498438  0.78125387  0.49894588    -0.41000
C1961       C  0.69499291  0.75284821  0.49371669     0.32200
C1962       C  0.67621113  0.74143869  0.47516962     0.14000
F1963       F  0.63889773  0.80303530  0.45399805    -0.13400
F1964       F  0.71334251  0.73613148  0.50618896    -0.13900
F1965       F  0.67412883  0.82516853  0.48977947    -0.16200
F1966       F  0.67699467  0.71414203  0.47003269    -0.14700
F1967       F  0.67973025  0.73465267  0.41405305    -0.14700
F1968       F  0.56817744  0.75169082  0.41682260    -0.16100
loop_ 
_geom_bond_atom_site_label_1 
_geom_bond_atom_site_label_2 
_geom_bond_distance 
_geom_bond_site_symmetry_2 
_ccdc_geom_bond_type 
O1           C16   1.262       .  A
O1           Al9   1.906       .  S
C2           O12   1.264       .  A
C2            O3   1.265       .  A
C2         C1893   1.466       .  S
O3           Al5   1.914       .  S
O4            C6   1.258       .  A
O4           Al5   1.893       .  S
Al5          O13   1.909       .  S
Al5          O15   1.908       .  S
Al5          O14   1.786       .  S
C6           O19   1.254       .  A
C6         C1933   1.473       .  S
O7           C17   1.260       .  A
O7           Al9   1.919       .  S
O8           C21   1.270       .  A
O8          Al18   1.918       .  S
Al9          O22   1.898       .  S
Al9          O19   1.888       .  S
Al9          O14   1.793       .  S
O10          C17   1.256       .  A
O10         Al18   1.895       .  S
O11          C20   1.259       .  A
O11         Al18   1.918       .  S
O12         Al18   1.907       .  S
O13          C20   1.259       .  A
O14         Al18   1.791       .  S
O15          C16   1.262       .  A
C16        C1860   1.477       .  S
C17        C1960   1.491       .  S
C20        C1913   1.500       .  S
C21          O22   1.264       .  A
C21        C1880   1.478       .  S
O23          C38   1.261       .  A
O23         Al31   1.895       .  S
C24          O34   1.259       .  A
C24          O25   1.270       .  A
C24        C1780   1.485       .  S
O25         Al27   1.933       .  S
O26          C28   1.260       .  A
O26         Al27   1.898       .  S
Al27         O35   1.918       .  S
Al27         O37   1.912       .  S
Al27         O36   1.790       .  S
C28          O41   1.263       .  A
C28        C1813   1.484   1_565  S
O29          C39   1.258       .  A
O29         Al31   1.911       .  S
O30          C43   1.263       .  A
O30         Al40   1.891       .  S
Al31         O44   1.928       .  S
Al31         O41   1.917       .  S
Al31         O36   1.787       .  S
O32          C39   1.255       .  A
O32         Al40   1.890       .  S
O33          C42   1.257       .  A
O33         Al40   1.896       .  S
O34         Al40   1.881       .  S
O35          C42   1.261       .  A
O36         Al40   1.782       .  S
O37          C38   1.263       .  A
C38        C1753   1.489   1_565  S
C39        C1840   1.461       .  S
C42        C1793   1.492       .  S
C43          O44   1.267       .  A
C43        C1873   1.482       .  S
O45          C60   1.264       .  A
O45         Al53   1.899       .  S
C46          O56   1.267       .  A
C46          O47   1.270       .  A
C46        C1653   1.491       .  S
O47         Al49   1.930       .  S
O48          C50   1.257       .  A
O48         Al49   1.898       .  S
Al49         O57   1.911       .  S
Al49         O59   1.920       .  S
Al49         O58   1.795       .  S
C50          O63   1.257       .  A
C50        C1713   1.486   1_455  S
O51          C61   1.261       .  A
O51         Al53   1.921       .  S
O52          C65   1.269       .  A
O52         Al62   1.920       .  S
Al53         O66   1.921       .  S
Al53         O63   1.904       .  S
Al53         O58   1.796       .  S
O54          C61   1.256       .  A
O54         Al62   1.896       .  S
O55          C64   1.254       .  A
O55         Al62   1.900       .  S
O56         Al62   1.901       .  S
O57          C64   1.257       .  A
O58         Al62   1.792       .  S
O59          C60   1.266       .  A
C60        C1853   1.485   1_455  S
C61        C1733   1.481       .  S
C64        C1680   1.497       .  S
C65          O66   1.266       .  A
C65        C1700   1.481       .  S
O67          C82   1.262       .  A
O67         Al75   1.901       .  S
C68          O78   1.261       .  A
C68          O69   1.264       .  A
C68        C1533   1.481       .  S
O69         Al71   1.919       .  S
O70          C72   1.258       .  A
O70         Al71   1.891       .  S
Al71         O79   1.914       .  S
Al71         O81   1.919       .  S
Al71         O80   1.787       .  S
C72          O85   1.264       .  A
C72        C1573   1.485       .  S
O73          C83   1.262       .  A
O73         Al75   1.925       .  S
O74          C87   1.263       .  A
O74         Al84   1.893       .  S
Al75         O88   1.934       .  S
Al75         O85   1.928       .  S
Al75         O80   1.789       .  S
O76          C83   1.258       .  A
O76         Al84   1.899       .  S
O77          C86   1.260       .  A
O77         Al84   1.908       .  S
O78         Al84   1.891       .  S
O79          C86   1.262       .  A
O80         Al84   1.781       .  S
O81          C82   1.265       .  A
C82        C1620   1.490       .  S
C83        C1640   1.474       .  S
C86        C1553   1.488       .  S
C87          O88   1.268       .  A
C87        C1593   1.483       .  S
O89         C104   1.260       .  A
O89         Al97   1.913       .  S
C90         O100   1.264       .  A
C90          O91   1.259       .  A
C90        C1473   1.475       .  S
O91         Al93   1.889       .  S
O92          C94   1.261       .  A
O92         Al93   1.893       .  S
Al93        O101   1.912       .  S
Al93        O103   1.890       .  S
Al93        O102   1.788       .  S
C94         O107   1.262       .  A
C94        C1460   1.485       .  S
O95         C105   1.259       .  A
O95         Al97   1.910       .  S
O96         C109   1.266       .  A
O96        Al106   1.913       .  S
Al97        O110   1.901       .  S
Al97        O107   1.907       .  S
Al97        O102   1.793       .  S
O98         C105   1.255       .  A
O98        Al106   1.894       .  S
O99         C108   1.259       .  A
O99        Al106   1.897       .  S
O100       Al106   1.917       .  S
O101        C108   1.263       .  A
O102       Al106   1.790       .  S
O103        C104   1.257       .  A
C104       C1613   1.491       .  S
C105       C1520   1.472       .  S
C108       C1493   1.489       .  S
C109        O110   1.263       .  A
C109       C1693   1.492   1_545  S
O111        C126   1.259       .  A
O111       Al119   1.900       .  S
C112        O122   1.263       .  A
C112        O113   1.261       .  A
C112       C1373   1.464       .  S
O113       Al115   1.902       .  S
O114        C116   1.257       .  A
O114       Al115   1.878       .  S
Al115       O123   1.897       .  S
Al115       O125   1.901       .  S
Al115       O124   1.783       .  S
C116        O129   1.264       .  A
C116       C1433   1.490       .  S
O117        C127   1.261       .  A
O117       Al119   1.916       .  S
O118        C131   1.266       .  A
O118       Al128   1.909       .  S
Al119       O132   1.920       .  S
Al119       O129   1.927       .  S
Al119       O124   1.788       .  S
O120        C127   1.257       .  A
O120       Al128   1.892       .  S
O121        C130   1.261       .  A
O121       Al128   1.914       .  S
O122       Al128   1.913       .  S
O123        C130   1.259       .  A
O124       Al128   1.787       .  S
O125        C126   1.261       .  A
C126       C1760   1.488       .  S
C127       C1413   1.486       .  S
C130       C1393   1.482       .  S
C131        O132   1.267       .  A
C131       C1600   1.486       .  S
O133        C148   1.263       .  A
O133       Al141   1.907       .  S
C134        O144   1.261       .  A
C134        O135   1.268       .  A
C134       C1333   1.480       .  S
O135       Al137   1.932       .  S
O136        C138   1.259       .  A
O136       Al137   1.890       .  S
Al137       O145   1.923       .  S
Al137       O147   1.914       .  S
Al137       O146   1.785       .  S
C138        O151   1.262       .  A
C138       C1400   1.475       .  S
O139        C149   1.259       .  A
O139       Al141   1.919       .  S
O140        C153   1.261       .  A
O140       Al150   1.878       .  S
Al141       O154   1.933       .  S
Al141       O151   1.915       .  S
Al141       O146   1.786       .  S
O142        C149   1.255       .  A
O142       Al150   1.892       .  S
O143        C152   1.256       .  A
O143       Al150   1.890       .  S
O144       Al150   1.878       .  S
O145        C152   1.263       .  A
O146       Al150   1.778       .  S
O147        C148   1.263       .  A
C148       C1273   1.485       .  S
C149       C1320   1.467       .  S
C152       C1353   1.491       .  S
C153        O154   1.269       .  A
C153       C1293   1.476       .  S
O155        C170   1.265       .  A
O155       Al163   1.917       .  S
C156        O166   1.262       .  A
C156        O157   1.265       .  A
C156       C1220   1.473       .  S
O157       Al159   1.915       .  S
O158        C160   1.261       .  A
O158       Al159   1.904       .  S
Al159       O167   1.921       .  S
Al159       O169   1.899       .  S
Al159       O168   1.790       .  S
C160        O173   1.259       .  A
C160       C1380   1.489       .  S
O161        C171   1.264       .  A
O161       Al163   1.935       .  S
O162        C175   1.265       .  A
O162       Al172   1.900       .  S
Al163       O176   1.912       .  S
Al163       O173   1.898       .  S
Al163       O168   1.792       .  S
O164        C171   1.256       .  A
O164       Al172   1.889       .  S
O165        C174   1.257       .  A
O165       Al172   1.897       .  S
O166       Al172   1.895       .  S
O167        C174   1.261       .  A
O168       Al172   1.785       .  S
O169        C170   1.261       .  A
C170       C1280   1.489       .  S
C171       C1253   1.494       .  S
C174       C1240   1.492       .  S
C175        O176   1.265       .  A
C175       C1193   1.485       .  S
O177        C192   1.262       .  A
O177       Al185   1.901       .  S
C178        O188   1.266       .  A
C178        O179   1.271       .  A
C178       C1160   1.494       .  S
O179       Al181   1.938       .  S
O180        C182   1.258       .  A
O180       Al181   1.893       .  S
Al181       O189   1.919       .  S
Al181       O191   1.919       .  S
Al181       O190   1.792       .  S
C182        O195   1.258       .  A
C182       C1140   1.485       .  S
O183        C193   1.263       .  A
O183       Al185   1.933       .  S
O184        C197   1.266       .  A
O184       Al194   1.905       .  S
Al185       O198   1.912       .  S
Al185       O195   1.904       .  S
Al185       O190   1.788       .  S
O186        C193   1.254       .  A
O186       Al194   1.890       .  S
O187        C196   1.251       .  A
O187       Al194   1.874       .  S
O188       Al194   1.895       .  S
O189        C196   1.258       .  A
O190       Al194   1.786       .  S
O191        C192   1.265       .  A
C192       C1093   1.494       .  S
C193       C1660   1.482       .  S
C196       C1173   1.487       .  S
C197        O198   1.266       .  A
C197       C1113   1.477       .  S
O199        C214   1.263       .  A
O199       Al207   1.916       .  S
C200        O210   1.261       .  A
C200        O201   1.263       .  A
C200       C1453   1.462       .  S
O201       Al203   1.907       .  S
O202        C204   1.260       .  A
O202       Al203   1.890       .  S
Al203       O211   1.903       .  S
Al203       O213   1.903       .  S
Al203       O212   1.778       .  S
C204        O217   1.261       .  A
C204       C1073   1.480       .  S
O205        C215   1.263       .  A
O205       Al207   1.928       .  S
O206        C219   1.264       .  A
O206       Al216   1.892       .  S
Al207       O220   1.907       .  S
Al207       O217   1.908       .  S
Al207       O212   1.785       .  S
O208        C215   1.259       .  A
O208       Al216   1.901       .  S
O209        C218   1.263       .  A
O209       Al216   1.921       .  S
O210       Al216   1.904       .  S
O211        C218   1.261       .  A
O212       Al216   1.785       .  S
O213        C214   1.261       .  A
C214       C1100   1.495       .  S
C215       C1053   1.479       .  S
C218       C1580   1.492       .  S
C219        O220   1.265       .  A
C219       C1300   1.468       .  S
O221        C236   1.264       .  A
O221       Al229   1.900       .  S
C222        O232   1.261       .  A
C222        O223   1.267       .  A
C222       C1833   1.487       .  S
O223       Al225   1.926       .  S
O224        C226   1.260       .  A
O224       Al225   1.915       .  S
Al225       O233   1.920       .  S
Al225       O235   1.923       .  S
Al225       O234   1.784       .  S
C226        O239   1.263       .  A
C226       C1033   1.488       .  S
O227        C237   1.266       .  A
O227       Al229   1.932       .  S
O228        C241   1.262       .  A
O228       Al238   1.894       .  S
Al229       O242   1.931       .  S
Al229       O239   1.926       .  S
Al229       O234   1.786       .  S
O230        C237   1.258       .  A
O230       Al238   1.890       .  S
O231        C240   1.255       .  A
O231       Al238   1.887       .  S
O232       Al238   1.883       .  S
O233        C240   1.262       .  A
O234       Al238   1.778       .  S
O235        C236   1.267       .  A
C236       C1000   1.487       .  S
C237       C1013   1.471       .  S
C240       C1953   1.491       .  S
C241        O242   1.266       .  A
C241       C1200   1.483       .  S
O243        C258   1.264       .  A
O243       Al251   1.910       .  S
C244        O254   1.264       .  A
C244        O245   1.262       .  A
C244        C933   1.463       .  S
O245       Al247   1.906       .  S
O246        C248   1.257       .  A
O246       Al247   1.891       .  S
Al247       O255   1.899       .  S
Al247       O257   1.908       .  S
Al247       O256   1.779       .  S
C248        O261   1.258       .  A
C248        C980   1.467       .  S
O249        C259   1.266       .  A
O249       Al251   1.929       .  S
O250        C263   1.266       .  A
O250       Al260   1.911       .  S
Al251       O264   1.900       .  S
Al251       O261   1.904       .  S
Al251       O256   1.783       .  S
O252        C259   1.261       .  A
O252       Al260   1.906       .  S
O253        C262   1.260       .  A
O253       Al260   1.907       .  S
O254       Al260   1.908       .  S
O255        C262   1.259       .  A
O256       Al260   1.782       .  S
O257        C258   1.263       .  A
C258        C993   1.490       .  S
C259       C1673   1.493       .  S
C262        C960   1.482       .  S
C263        O264   1.263       .  A
C263       C1120   1.485       .  S
O265        C280   1.260       .  A
O265       Al273   1.905       .  S
C266        O276   1.262       .  A
C266        O267   1.261       .  A
C266       C1940   1.468       .  S
O267       Al269   1.896       .  S
O268        C270   1.259       .  A
O268       Al269   1.892       .  S
Al269       O277   1.907       .  S
Al269       O279   1.896       .  S
Al269       O278   1.785       .  S
C270        O283   1.262       .  A
C270        C920   1.492       .  S
O271        C281   1.261       .  A
O271       Al273   1.916       .  S
O272        C285   1.266       .  A
O272       Al282   1.906       .  S
Al273       O286   1.912       .  S
Al273       O283   1.922       .  S
Al273       O278   1.792       .  S
O274        C281   1.258       .  A
O274       Al282   1.897       .  S
O275        C284   1.262       .  A
O275       Al282   1.921       .  S
O276       Al282   1.908       .  S
O277        C284   1.261       .  A
O278       Al282   1.789       .  S
O279        C280   1.260       .  A
C280        C873   1.486       .  S
C281       C1360   1.492       .  S
C284       C1720   1.489       .  S
C285        O286   1.266       .  A
C285        C893   1.478       .  S
O287        C302   1.262       .  A
O287       Al295   1.905       .  S
C288        O298   1.261       .  A
C288        O289   1.264       .  A
C288        C840   1.490       .  S
O289       Al291   1.920       .  S
O290        C292   1.260       .  A
O290       Al291   1.893       .  S
Al291       O299   1.911       .  S
Al291       O301   1.925       .  S
Al291       O300   1.785       .  S
C292        O305   1.264       .  A
C292       C1500   1.488       .  S
O293        C303   1.259       .  A
O293       Al295   1.907       .  S
O294        C307   1.262       .  A
O294       Al304   1.895       .  S
Al295       O308   1.925       .  S
Al295       O305   1.920       .  S
Al295       O300   1.786       .  S
O296        C303   1.258       .  A
O296       Al304   1.896       .  S
O297        C306   1.262       .  A
O297       Al304   1.907       .  S
O298       Al304   1.899       .  S
O299        C306   1.264       .  A
O300       Al304   1.782       .  S
O301        C302   1.264       .  A
C302        C820   1.487   1_655  S
C303       C1340   1.462       .  S
C306        C853   1.488       .  S
C307        O308   1.266       .  A
C307        C900   1.485       .  S
O309        C324   1.261       .  A
O309       Al317   1.887       .  S
C310        O320   1.262       .  A
C310        O311   1.265       .  A
C310       C1020   1.486       .  S
O311       Al313   1.917       .  S
O312        C314   1.259       .  A
O312       Al313   1.900       .  S
Al313       O321   1.919       .  S
Al313       O323   1.926       .  S
Al313       O322   1.783       .  S
C314        O327   1.260       .  A
C314        C800   1.480       .  S
O315        C325   1.260       .  A
O315       Al317   1.908       .  S
O316        C329   1.263       .  A
O316       Al326   1.897       .  S
Al317       O330   1.915       .  S
Al317       O327   1.911       .  S
Al317       O322   1.784       .  S
O318        C325   1.260       .  A
O318       Al326   1.907       .  S
O319        C328   1.261       .  A
O319       Al326   1.907       .  S
O320       Al326   1.899       .  S
O321        C328   1.263       .  A
O322       Al326   1.781       .  S
O323        C324   1.266       .  A
C324        C880   1.489   1_554  S
C325       C1773   1.469       .  S
C328       C1260   1.493       .  S
C329        O330   1.264       .  A
C329        C773   1.475       .  S
O331        C346   1.261       .  A
O331       Al339   1.895       .  S
C332        O342   1.262       .  A
C332        O333   1.269       .  A
C332       C1633   1.493       .  S
O333       Al335   1.937       .  S
O334        C336   1.255       .  A
O334       Al335   1.880       .  S
Al335       O343   1.907       .  S
Al335       O345   1.922       .  S
Al335       O344   1.789       .  S
C336        O349   1.260       .  A
C336        C953   1.467       .  S
O337        C347   1.257       .  A
O337       Al339   1.906       .  S
O338        C351   1.265       .  A
O338       Al348   1.899       .  S
Al339       O352   1.926       .  S
Al339       O349   1.909       .  S
Al339       O344   1.787       .  S
O340        C347   1.256       .  A
O340       Al348   1.898       .  S
O341        C350   1.258       .  A
O341       Al348   1.900       .  S
O342       Al348   1.890       .  S
O343        C350   1.259       .  A
O344       Al348   1.783       .  S
O345        C346   1.266       .  A
C346        C733   1.486       .  S
C347        C760   1.462       .  S
C350       C1420   1.489       .  S
C351        O352   1.267       .  A
C351        C720   1.483       .  S
O353        C368   1.262       .  A
O353       Al361   1.908       .  S
C354        O364   1.264       .  A
C354        O355   1.264       .  A
C354        C680   1.472       .  S
O355       Al357   1.907       .  S
O356        C358   1.259       .  A
O356       Al357   1.892       .  S
Al357       O365   1.909       .  S
Al357       O367   1.897       .  S
Al357       O366   1.785       .  S
C358        O371   1.259       .  A
C358        C940   1.478       .  S
O359        C369   1.264       .  A
O359       Al361   1.927       .  S
O360        C373   1.266       .  A
O360       Al370   1.907       .  S
Al361       O374   1.899       .  S
Al361       O371   1.903       .  S
Al361       O366   1.792       .  S
O362        C369   1.257       .  A
O362       Al370   1.894       .  S
O363        C372   1.258       .  A
O363       Al370   1.905       .  S
O364       Al370   1.907       .  S
O365        C372   1.259       .  A
O366       Al370   1.787       .  S
O367        C368   1.261       .  A
C368        C740   1.485       .  S
C369       C1800   1.495   1_455  S
C372        C693   1.491       .  S
C373        O374   1.264       .  A
C373        C780   1.471   1_455  S
O375        C390   1.262       .  A
O375       Al383   1.915       .  S
C376        O386   1.262       .  A
C376        O377   1.261       .  A
C376       C1080   1.465       .  S
O377       Al379   1.905       .  S
O378        C380   1.258       .  A
O378       Al379   1.881       .  S
Al379       O387   1.898       .  S
Al379       O389   1.904       .  S
Al379       O388   1.786       .  S
C380        O393   1.263       .  A
C380       C1480   1.478       .  S
O381        C391   1.261       .  A
O381       Al383   1.924       .  S
O382        C395   1.265       .  A
O382       Al392   1.898       .  S
Al383       O396   1.918       .  S
Al383       O393   1.915       .  S
Al383       O388   1.788       .  S
O384        C391   1.259       .  A
O384       Al392   1.911       .  S
O385        C394   1.264       .  A
O385       Al392   1.925       .  S
O386       Al392   1.908       .  S
O387        C394   1.260       .  A
O388       Al392   1.789       .  S
O389        C390   1.260       .  A
C390        C813   1.490       .  S
C391        C653   1.493       .  S
C394       C1133   1.481       .  S
C395        O396   1.268       .  A
C395        C713   1.474   1_556  S
O397        C412   1.259       .  A
O397       Al405   1.897       .  S
C398        O408   1.266       .  A
C398        O399   1.265       .  A
C398        C913   1.477       .  S
O399       Al401   1.913       .  S
O400        C402   1.258       .  A
O400       Al401   1.890       .  S
Al401       O409   1.900       .  S
Al401       O411   1.907       .  S
Al401       O410   1.785       .  S
C402        O415   1.261       .  A
C402       C1900   1.486       .  S
O403        C413   1.258       .  A
O403       Al405   1.905       .  S
O404        C417   1.271       .  A
O404       Al414   1.920       .  S
Al405       O418   1.909       .  S
Al405       O415   1.908       .  S
Al405       O410   1.785       .  S
O406        C413   1.256       .  A
O406       Al414   1.894       .  S
O407        C416   1.261       .  A
O407       Al414   1.916       .  S
O408       Al414   1.919       .  S
O409        C416   1.259       .  A
O410       Al414   1.790       .  S
O411        C412   1.261       .  A
C412        C613   1.484       .  S
C413       C1180   1.485       .  S
C416        C793   1.491       .  S
C417        O418   1.266       .  A
C417        C633   1.482       .  S
O419        C434   1.259       .  A
O419       Al427   1.887       .  S
C420        O430   1.262       .  A
C420        O421   1.263       .  A
C420       C1740   1.487       .  S
O421       Al423   1.918       .  S
O422        C424   1.260       .  A
O422       Al423   1.902       .  S
Al423       O431   1.910       .  S
Al423       O433   1.920       .  S
Al423       O432   1.792       .  S
C424        O437   1.262       .  A
C424        C700   1.479       .  S
O425        C435   1.260       .  A
O425       Al427   1.913       .  S
O426        C439   1.263       .  A
O426       Al436   1.904       .  S
Al427       O440   1.920       .  S
Al427       O437   1.919       .  S
Al427       O432   1.790       .  S
O428        C435   1.258       .  A
O428       Al436   1.901       .  S
O429        C438   1.260       .  A
O429       Al436   1.903       .  S
O430       Al436   1.901       .  S
O431        C438   1.262       .  A
O432       Al436   1.785       .  S
O433        C434   1.263       .  A
C434        C593   1.474   1_556  S
C435       C1153   1.469       .  S
C438       C1513   1.483       .  S
C439        O440   1.265       .  A
C439        C640   1.488       .  S
O441        C456   1.261       .  A
O441       Al449   1.896       .  S
C442        O452   1.263       .  A
C442        O443   1.264       .  A
C442       C1313   1.487       .  S
O443       Al445   1.909       .  S
O444        C446   1.259       .  A
O444       Al445   1.899       .  S
Al445       O453   1.915       .  S
Al445       O455   1.919       .  S
Al445       O454   1.784       .  S
C446        O459   1.264       .  A
C446       C1920   1.492       .  S
O447        C457   1.261       .  A
O447       Al449   1.918       .  S
O448        C461   1.263       .  A
O448       Al458   1.895       .  S
Al449       O462   1.932       .  S
Al449       O459   1.931       .  S
Al449       O454   1.788       .  S
O450        C457   1.258       .  A
O450       Al458   1.893       .  S
O451        C460   1.258       .  A
O451       Al458   1.902       .  S
O452       Al458   1.904       .  S
O453        C460   1.263       .  A
O454       Al458   1.784       .  S
O455        C456   1.265       .  A
C456        C620   1.484   1_545  S
C457        C833   1.468       .  S
C460       C1060   1.482       .  S
C461        O462   1.267       .  A
C461        C573   1.485       .  S
O463        C478   1.261       .  A
O463       Al471   1.883       .  S
C464        O474   1.262       .  A
C464        O465   1.267       .  A
C464        C753   1.487       .  S
O465       Al467   1.923       .  S
O466        C468   1.259       .  A
O466       Al467   1.906       .  S
Al467       O475   1.931       .  S
Al467       O477   1.928       .  S
Al467       O476   1.784       .  S
C468        O481   1.260       .  A
C468       C1233   1.487       .  S
O469        C479   1.260       .  A
O469       Al471   1.911       .  S
O470        C483   1.263       .  A
O470       Al480   1.895       .  S
Al471       O484   1.926       .  S
Al471       O481   1.914       .  S
Al471       O476   1.788       .  S
O472        C479   1.259       .  A
O472       Al480   1.902       .  S
O473        C482   1.258       .  A
O473       Al480   1.902       .  S
O474       Al480   1.886       .  S
O475        C482   1.264       .  A
O476       Al480   1.779       .  S
O477        C478   1.268       .  A
C478        C553   1.484       .  S
C479       C1540   1.468       .  S
C482        C660   1.500       .  S
C483        O484   1.266       .  A
C483        C533   1.486       .  S
O485        C500   1.263       .  A
O485       Al493   1.898       .  S
C486        O496   1.260       .  A
C486        O487   1.259       .  A
C486       C1440   1.466       .  S
O487       Al489   1.898       .  S
O488        C490   1.257       .  A
O488       Al489   1.899       .  S
Al489       O497   1.902       .  S
Al489       O499   1.912       .  S
Al489       O498   1.787       .  S
C490        O503   1.255       .  A
C490       C1213   1.476       .  S
O491        C501   1.265       .  A
O491       Al493   1.915       .  S
O492        C505   1.263       .  A
O492       Al502   1.917       .  S
Al493       O506   1.894       .  S
Al493       O503   1.902       .  S
Al493       O498   1.793       .  S
O494        C501   1.263       .  A
O494       Al502   1.904       .  S
O495        C504   1.261       .  A
O495       Al502   1.909       .  S
O496       Al502   1.908       .  S
O497        C504   1.260       .  A
O498       Al502   1.789       .  S
O499        C500   1.266       .  A
C500        C560   1.482       .  S
C501        C860   1.483   1_554  S
C504       C1820   1.481       .  S
C505        O506   1.259       .  A
C505        C580   1.479   1_554  S
O507        C522   1.261       .  A
O507       Al515   1.915       .  S
C508        O518   1.266       .  A
C508        O509   1.259       .  A
C508        C973   1.480       .  S
O509       Al511   1.871       .  S
O510        C512   1.263       .  A
O510       Al511   1.909       .  S
Al511       O519   1.898       .  S
Al511       O521   1.906       .  S
Al511       O520   1.781       .  S
C512        O525   1.263       .  A
C512        C673   1.464       .  S
O513        C523   1.256       .  A
O513       Al515   1.905       .  S
O514        C527   1.272       .  A
O514       Al524   1.937       .  S
Al515       O528   1.876       .  S
Al515       O525   1.905       .  S
Al515       O520   1.792       .  S
O516        C523   1.258       .  A
O516       Al524   1.917       .  S
O517        C526   1.263       .  A
O517       Al524   1.928       .  S
O518       Al524   1.922       .  S
O519        C526   1.257       .  A
O520       Al524   1.788       .  S
O521        C522   1.262       .  A
C522        C600   1.482       .  S
C523       C1560   1.488       .  S
C526       C1040   1.505       .  S
C527        O528   1.263       .  A
C527        C540   1.482   1_565  S
C529        C530   1.405       .  A
C529        C534   1.397       .  A
C529        F547   1.358       .  S
C530        C535   1.483       .  S
C530        C531   1.405       .  A
C531        C532   1.400       .  A
C531        F536   1.358       .  S
C532        C533   1.412       .  A
C532        F548   1.358       .  S
C533        C534   1.410       .  A
C534        F537   1.358       .  S
C535        C538   1.404       .  A
C535        C542   1.407       .  A
C538        C539   1.397       .  A
C538        F543   1.358       .  S
C539        C540   1.411       .  A
C539        F545   1.358       .  S
C540        C541   1.407       .  A
C541        C542   1.399       .  A
C541        F544   1.358       .  S
C542        F546   1.358       .  S
C549        C550   1.404       .  A
C549        C554   1.399       .  A
C549        F567   1.358       .  S
C550        C555   1.478       .  S
C550        C551   1.402       .  A
C551        C552   1.399       .  A
C551        F556   1.358       .  S
C552        C553   1.411       .  A
C552        F568   1.358       .  S
C553        C554   1.409       .  A
C554        F557   1.358       .  S
C555        C558   1.403       .  A
C555        C562   1.403       .  A
C558        C559   1.396       .  A
C558        F563   1.358       .  S
C559        C560   1.410       .  A
C559        F565   1.358       .  S
C560        C561   1.411       .  A
C561        C562   1.400       .  A
C561        F564   1.358       .  S
C562        F566   1.358       .  S
C569        C570   1.407       .  A
C569        C574   1.398       .  A
C569        F587   1.358       .  S
C570        C575   1.488       .  S
C570        C571   1.406       .  A
C571        C572   1.402       .  A
C571        F576   1.358       .  S
C572        C573   1.409       .  A
C572        F588   1.358       .  S
C573        C574   1.409       .  A
C574        F577   1.358       .  S
C575        C578   1.405       .  A
C575        C582   1.410       .  A
C578        C579   1.398       .  A
C578        F583   1.358       .  S
C579        C580   1.408       .  A
C579        F585   1.359       .  S
C580        C581   1.405       .  A
C581        C582   1.403       .  A
C581        F584   1.358       .  S
C582        F586   1.358       .  S
C589        C590   1.407       .  A
C589        C594   1.394       .  A
C589        F607   1.358       .  S
C590        C595   1.487       .  S
C590        C591   1.410       .  A
C591        C592   1.404       .  A
C591        F596   1.358       .  S
C592        C593   1.406       .  A
C592        F608   1.358   1_554  S
C593        C594   1.404       .  A
C594        F597   1.358       .  S
C595        C598   1.408       .  A
C595        C602   1.406       .  A
C598        C599   1.399       .  A
C598        F603   1.358       .  S
C599        C600   1.406       .  A
C599        F605   1.358       .  S
C600        C601   1.411       .  A
C601        C602   1.398       .  A
C601        F604   1.358       .  S
C602        F606   1.358       .  S
C609        C610   1.407       .  A
C609        C614   1.401       .  A
C609        F627   1.358       .  S
C610        C615   1.489       .  S
C610        C611   1.408       .  A
C611        C612   1.399       .  A
C611        F616   1.358       .  S
C612        C613   1.408       .  A
C612        F628   1.358       .  S
C613        C614   1.409       .  A
C614        F617   1.358       .  S
C615        C618   1.407       .  A
C615        C622   1.408       .  A
C618        C619   1.401       .  A
C618        F623   1.358       .  S
C619        C620   1.409       .  A
C619        F625   1.358   1_565  S
C620        C621   1.409       .  A
C621        C622   1.399       .  A
C621        F624   1.358       .  S
C622        F626   1.358       .  S
C629        C630   1.409       .  A
C629        C634   1.403       .  A
C629        F647   1.358       .  S
C630        C635   1.490       .  S
C630        C631   1.405       .  A
C631        C632   1.401       .  A
C631        F636   1.358       .  S
C632        C633   1.409       .  A
C632        F648   1.358       .  S
C633        C634   1.405       .  A
C634        F637   1.358       .  S
C635        C638   1.405       .  A
C635        C642   1.408       .  A
C638        C639   1.401       .  A
C638        F643   1.358       .  S
C639        C640   1.410       .  A
C639        F645   1.358       .  S
C640        C641   1.410       .  A
C641        C642   1.403       .  A
C641        F644   1.358       .  S
C642        F646   1.358       .  S
C649        C650   1.405       .  A
C649        C654   1.400       .  A
C649        F667   1.358       .  S
C650        C655   1.495       .  S
C650        C651   1.410       .  A
C651        C652   1.410   1_554  A
C651        F656   1.357       .  S
C652        C653   1.410       .  A
C652        F668   1.358       .  S
C653        C654   1.410   1_556  A
C654        F657   1.358       .  S
C655        C658   1.404       .  A
C655        C662   1.409       .  A
C658        C659   1.403       .  A
C658        F663   1.358       .  S
C659        C660   1.416       .  A
C659        F665   1.358       .  S
C660        C661   1.410       .  A
C661        C662   1.407       .  A
C661        F664   1.357       .  S
C662        F666   1.358       .  S
C669        C670   1.405       .  A
C669        C674   1.401       .  A
C669        F687   1.357       .  S
C670        C675   1.472       .  S
C670        C671   1.402       .  A
C671        C672   1.395       .  A
C671        F676   1.358       .  S
C672        C673   1.404       .  A
C672        F688   1.358       .  S
C673        C674   1.403       .  A
C674        F677   1.358       .  S
C675        C678   1.402       .  A
C675        C682   1.403       .  A
C678        C679   1.394       .  A
C678        F683   1.358       .  S
C679        C680   1.407       .  A
C679        F685   1.359       .  S
C680        C681   1.406       .  A
C681        C682   1.402       .  A
C681        F684   1.358       .  S
C682        F686   1.357       .  S
C689        C690   1.403       .  A
C689        C694   1.398       .  A
C689        F707   1.358       .  S
C690        C695   1.486       .  S
C690        C691   1.406       .  A
C691        C692   1.404       .  A
C691        F696   1.358       .  S
C692        C693   1.412       .  A
C692        F708   1.358       .  S
C693        C694   1.412       .  A
C694        F697   1.358       .  S
C695        C698   1.407       .  A
C695        C702   1.407       .  A
C698        C699   1.401       .  A
C698        F703   1.358       .  S
C699        C700   1.407   1_554  A
C699        F705   1.358       .  S
C700        C701   1.406       .  A
C701        C702   1.402   1_556  A
C701        F704   1.358       .  S
C702        F706   1.357   1_554  S
C709        C710   1.404       .  A
C709        C714   1.399       .  A
C709        F727   1.357       .  S
C710        C715   1.480       .  S
C710        C711   1.406       .  A
C711        C712   1.401       .  A
C711        F716   1.358       .  S
C712        C713   1.406       .  A
C712        F728   1.358       .  S
C713        C714   1.405       .  A
C714        F717   1.358   1_554  S
C715        C718   1.404       .  A
C715        C722   1.404       .  A
C718        C719   1.398       .  A
C718        F723   1.358       .  S
C719        C720   1.408       .  A
C719        F725   1.358       .  S
C720        C721   1.411       .  A
C721        C722   1.403       .  A
C721        F724   1.358       .  S
C722        F726   1.358       .  S
C729        C730   1.408       .  A
C729        C734   1.403       .  A
C729        F747   1.358       .  S
C730        C735   1.491       .  S
C730        C731   1.408       .  A
C731        C732   1.398       .  A
C731        F736   1.358       .  S
C732        C733   1.408       .  A
C732        F748   1.358       .  S
C733        C734   1.410       .  A
C734        F737   1.358       .  S
C735        C738   1.409       .  A
C735        C742   1.407       .  A
C738        C739   1.403       .  A
C738        F743   1.358       .  S
C739        C740   1.408       .  A
C739        F745   1.358       .  S
C740        C741   1.409       .  A
C741        C742   1.397       .  A
C741        F744   1.358       .  S
C742        F746   1.358       .  S
C749        C750   1.404       .  A
C749        C754   1.396       .  A
C749        F767   1.358       .  S
C750        C755   1.480       .  S
C750        C751   1.404       .  A
C751        C752   1.400       .  A
C751        F756   1.358       .  S
C752        C753   1.412       .  A
C752        F768   1.358       .  S
C753        C754   1.411       .  A
C754        F757   1.358       .  S
C755        C758   1.408       .  A
C755        C762   1.406       .  A
C758        C759   1.401       .  A
C758        F763   1.358       .  S
C759        C760   1.403       .  A
C759        F765   1.358       .  S
C760        C761   1.401       .  A
C761        C762   1.395       .  A
C761        F764   1.358       .  S
C762        F766   1.358       .  S
C769        C770   1.405       .  A
C769        C774   1.395       .  A
C769        F787   1.358       .  S
C770        C775   1.478       .  S
C770        C771   1.403       .  A
C771        C772   1.399       .  A
C771        F776   1.358       .  S
C772        C773   1.408       .  A
C772        F788   1.358       .  S
C773        C774   1.406       .  A
C774        F777   1.358       .  S
C775        C778   1.402       .  A
C775        C782   1.408       .  A
C778        C779   1.394       .  A
C778        F783   1.358       .  S
C779        C780   1.407       .  A
C779        F785   1.358       .  S
C780        C781   1.404       .  A
C781        C782   1.401       .  A
C781        F784   1.358       .  S
C782        F786   1.358       .  S
C789        C790   1.404       .  A
C789        C794   1.397       .  A
C789        F807   1.358       .  S
C790        C795   1.484       .  S
C790        C791   1.404       .  A
C791        C792   1.403       .  A
C791        F796   1.358       .  S
C792        C793   1.413       .  A
C792        F808   1.358       .  S
C793        C794   1.413       .  A
C794        F797   1.358       .  S
C795        C798   1.406       .  A
C795        C802   1.405       .  A
C798        C799   1.401       .  A
C798        F803   1.358       .  S
C799        C800   1.409   1_556  A
C799        F805   1.358       .  S
C800        C801   1.406       .  A
C801        C802   1.399   1_554  A
C801        F804   1.358       .  S
C802        F806   1.358       .  S
C809        C810   1.408       .  A
C809        C814   1.405       .  A
C809        F827   1.358       .  S
C810        C815   1.491       .  S
C810        C811   1.406       .  A
C811        C812   1.401       .  A
C811        F816   1.358       .  S
C812        C813   1.410       .  A
C812        F828   1.358       .  S
C813        C814   1.410       .  A
C814        F817   1.358       .  S
C815        C818   1.408       .  A
C815        C822   1.406       .  A
C818        C819   1.404       .  A
C818        F823   1.357       .  S
C819        C820   1.408       .  A
C819        F825   1.358   1_455  S
C820        C821   1.410       .  A
C821        C822   1.402       .  A
C821        F824   1.358       .  S
C822        F826   1.358       .  S
C829        C830   1.408       .  A
C829        C834   1.405       .  A
C829        F847   1.357       .  S
C830        C835   1.481       .  S
C830        C831   1.405       .  A
C831        C832   1.393       .  A
C831        F836   1.358       .  S
C832        C833   1.404       .  A
C832        F848   1.359       .  S
C833        C834   1.404       .  A
C834        F837   1.358       .  S
C835        C838   1.405       .  A
C835        C842   1.403       .  A
C838        C839   1.401       .  A
C838        F843   1.358       .  S
C839        C840   1.412       .  A
C839        F845   1.358       .  S
C840        C841   1.412       .  A
C841        C842   1.398       .  A
C841        F844   1.357       .  S
C842        F846   1.358       .  S
C849        C850   1.403       .  A
C849        C854   1.400       .  A
C849        F867   1.358       .  S
C850        C855   1.485       .  S
C850        C851   1.407       .  A
C851        C852   1.400       .  A
C851        F856   1.358       .  S
C852        C853   1.409       .  A
C852        F868   1.358       .  S
C853        C854   1.413       .  A
C854        F857   1.358       .  S
C855        C858   1.404       .  A
C855        C862   1.408       .  A
C858        C859   1.394       .  A
C858        F863   1.358       .  S
C859        C860   1.410       .  A
C859        F865   1.359       .  S
C860        C861   1.409       .  A
C861        C862   1.406       .  A
C861        F864   1.358   1_556  S
C862        F866   1.357       .  S
C869        C870   1.407       .  A
C869        C874   1.403       .  A
C869        F887   1.358       .  S
C870        C875   1.485       .  S
C870        C871   1.405       .  A
C871        C872   1.394       .  A
C871        F876   1.358       .  S
C872        C873   1.410       .  A
C872        F888   1.358       .  S
C873        C874   1.411       .  A
C874        F877   1.358       .  S
C875        C878   1.404       .  A
C875        C882   1.406       .  A
C878        C879   1.397       .  A
C878        F883   1.358       .  S
C879        C880   1.412       .  A
C879        F885   1.358       .  S
C880        C881   1.412       .  A
C881        C882   1.401       .  A
C881        F884   1.358       .  S
C882        F886   1.358       .  S
C889        C890   1.405       .  A
C889        C894   1.399       .  A
C889        F907   1.358       .  S
C890        C895   1.484       .  S
C890        C891   1.407       .  A
C891        C892   1.402       .  A
C891        F896   1.358       .  S
C892        C893   1.407       .  A
C892        F908   1.358       .  S
C893        C894   1.407       .  A
C894        F897   1.358       .  S
C895        C898   1.405       .  A
C895        C902   1.405       .  A
C898        C899   1.398       .  A
C898        F903   1.358       .  S
C899        C900   1.409       .  A
C899        F905   1.358       .  S
C900        C901   1.410       .  A
C901        C902   1.403       .  A
C901        F904   1.358       .  S
C902        F906   1.358       .  S
C909        C910   1.406       .  A
C909        C914   1.406       .  A
C909        F927   1.357       .  S
C910        C915   1.480       .  S
C910        C911   1.403       .  A
C911        C912   1.396       .  A
C911        F916   1.358       .  S
C912        C913   1.406       .  A
C912        F928   1.358       .  S
C913        C914   1.408       .  A
C914        F917   1.358       .  S
C915        C918   1.403       .  A
C915        C922   1.402       .  A
C918        C919   1.400       .  A
C918        F923   1.358       .  S
C919        C920   1.412       .  A
C919        F925   1.358       .  S
C920        C921   1.413       .  A
C921        C922   1.403       .  A
C921        F924   1.357       .  S
C922        F926   1.358       .  S
C929        C930   1.408       .  A
C929        C934   1.397       .  A
C929        F947   1.358       .  S
C930        C935   1.483       .  S
C930        C931   1.408       .  A
C931        C932   1.399       .  A
C931        F936   1.358       .  S
C932        C933   1.402       .  A
C932        F948   1.358       .  S
C933        C934   1.402       .  A
C934        F937   1.359       .  S
C935        C938   1.405       .  A
C935        C942   1.407       .  A
C938        C939   1.399       .  A
C938        F943   1.358       .  S
C939        C940   1.410       .  A
C939        F945   1.358       .  S
C940        C941   1.406       .  A
C941        C942   1.397       .  A
C941        F944   1.358       .  S
C942        F946   1.358       .  S
C949        C950   1.407       .  A
C949        C954   1.400       .  A
C949        F967   1.358       .  S
C950        C955   1.482       .  S
C950        C951   1.408       .  A
C951        C952   1.396       .  A
C951        F956   1.358       .  S
C952        C953   1.402       .  A
C952        F968   1.358       .  S
C953        C954   1.404       .  A
C954        F957   1.358       .  S
C955        C958   1.405       .  A
C955        C962   1.405       .  A
C958        C959   1.399       .  A
C958        F963   1.358       .  S
C959        C960   1.410       .  A
C959        F965   1.358       .  S
C960        C961   1.409       .  A
C961        C962   1.398       .  A
C961        F964   1.358       .  S
C962        F966   1.358       .  S
C969        C970   1.402       .  A
C969        C974   1.392       .  A
C969        F987   1.359       .  S
C970        C975   1.474       .  S
C970        C971   1.404       .  A
C971        C972   1.400       .  A
C971        F976   1.358       .  S
C972        C973   1.410       .  A
C972        F988   1.358       .  S
C973        C974   1.411       .  A
C974        F977   1.358       .  S
C975        C978   1.404       .  A
C975        C982   1.406       .  A
C978        C979   1.396       .  A
C978        F983   1.358       .  S
C979        C980   1.406       .  A
C979        F985   1.359       .  S
C980        C981   1.403       .  A
C981        C982   1.397       .  A
C981        F984   1.358       .  S
C982        F986   1.358       .  S
C989        C990   1.404       .  A
C989        C994   1.398       .  A
C989       F1007   1.358       .  S
C990        C995   1.485       .  S
C990        C991   1.406       .  A
C991        C992   1.403       .  A
C991        F996   1.358       .  S
C992        C993   1.411       .  A
C992       F1008   1.357       .  S
C993        C994   1.412       .  A
C994        F997   1.358       .  S
C995        C998   1.405       .  A
C995       C1002   1.406       .  A
C998        C999   1.399       .  A
C998       F1003   1.358       .  S
C999       C1000   1.410       .  A
C999       F1005   1.358       .  S
C1000      C1001   1.410       .  A
C1001      C1002   1.402       .  A
C1001      F1004   1.358       .  S
C1002      F1006   1.358       .  S
C1009      C1010   1.412       .  A
C1009      C1014   1.407       .  A
C1009      F1027   1.357       .  S
C1010      C1015   1.490       .  S
C1010      C1011   1.407       .  A
C1011      C1012   1.392       .  A
C1011      F1016   1.358       .  S
C1012      C1013   1.404       .  A
C1012      F1028   1.358       .  S
C1013      C1014   1.404       .  A
C1014      F1017   1.357       .  S
C1015      C1018   1.409       .  A
C1015      C1022   1.407       .  A
C1018      C1019   1.402       .  A
C1018      F1023   1.358       .  S
C1019      C1020   1.410       .  A
C1019      F1025   1.358       .  S
C1020      C1021   1.409       .  A
C1021      C1022   1.397       .  A
C1021      F1024   1.358       .  S
C1022      F1026   1.358       .  S
C1029      C1030   1.410       .  A
C1029      C1034   1.401       .  A
C1029      F1047   1.358       .  S
C1030      C1035   1.501       .  S
C1030      C1031   1.411       .  A
C1031      C1032   1.410       .  A
C1031      F1036   1.357       .  S
C1032      C1033   1.408       .  A
C1032      F1048   1.358       .  S
C1033      C1034   1.406       .  A
C1034      F1037   1.358       .  S
C1035      C1038   1.409       .  A
C1035      C1042   1.406       .  A
C1038      C1039   1.410       .  A
C1038      F1043   1.357       .  S
C1039      C1040   1.413       .  A
C1039      F1045   1.357       .  S
C1040      C1041   1.416       .  A
C1041      C1042   1.402       .  A
C1041      F1044   1.358       .  S
C1042      F1046   1.358       .  S
C1049      C1050   1.410       .  A
C1049      C1054   1.409       .  A
C1049      F1067   1.357       .  S
C1050      C1055   1.490       .  S
C1050      C1051   1.405       .  A
C1051      C1052   1.395       .  A
C1051      F1056   1.358       .  S
C1052      C1053   1.406       .  A
C1052      F1068   1.359       .  S
C1053      C1054   1.406       .  A
C1054      F1057   1.357       .  S
C1055      C1058   1.409       .  A
C1055      C1062   1.406       .  A
C1058      C1059   1.400       .  A
C1058      F1063   1.358       .  S
C1059      C1060   1.404       .  A
C1059      F1065   1.358       .  S
C1060      C1061   1.410       .  A
C1061      C1062   1.405       .  A
C1061      F1064   1.358       .  S
C1062      F1066   1.358       .  S
C1069      C1070   1.402       .  A
C1069      C1074   1.397       .  A
C1069      F1087   1.358       .  S
C1070      C1075   1.474       .  S
C1070      C1071   1.403       .  A
C1071      C1072   1.397       .  A
C1071      F1076   1.358       .  S
C1072      C1073   1.409       .  A
C1072      F1088   1.358       .  S
C1073      C1074   1.412       .  A
C1074      F1077   1.358       .  S
C1075      C1078   1.404       .  A
C1075      C1082   1.405       .  A
C1078      C1079   1.395       .  A
C1078      F1083   1.358       .  S
C1079      C1080   1.404       .  A
C1079      F1085   1.359       .  S
C1080      C1081   1.404       .  A
C1081      C1082   1.400       .  A
C1081      F1084   1.358       .  S
C1082      F1086   1.358       .  S
C1089      C1090   1.405       .  A
C1089      C1094   1.402       .  A
C1089      F1107   1.358       .  S
C1090      C1095   1.490       .  S
C1090      C1091   1.406       .  A
C1091      C1092   1.403       .  A
C1091      F1096   1.358       .  S
C1092      C1093   1.412       .  A
C1092      F1108   1.358       .  S
C1093      C1094   1.412       .  A
C1094      F1097   1.358       .  S
C1095      C1098   1.407       .  A
C1095      C1102   1.404       .  A
C1098      C1099   1.405       .  A
C1098      F1103   1.357       .  S
C1099      C1100   1.412       .  A
C1099      F1105   1.357       .  S
C1100      C1101   1.414       .  A
C1101      C1102   1.398       .  A
C1101      F1104   1.358       .  S
C1102      F1106   1.358       .  S
C1109      C1110   1.408       .  A
C1109      C1114   1.402       .  A
C1109      F1127   1.358       .  S
C1110      C1115   1.479       .  S
C1110      C1111   1.403       .  A
C1111      C1112   1.392       .  A
C1111      F1116   1.358       .  S
C1112      C1113   1.409       .  A
C1112      F1128   1.358       .  S
C1113      C1114   1.407       .  A
C1114      F1117   1.358       .  S
C1115      C1118   1.406       .  A
C1115      C1122   1.401       .  A
C1118      C1119   1.401       .  A
C1118      F1123   1.358       .  S
C1119      C1120   1.410       .  A
C1119      F1125   1.358       .  S
C1120      C1121   1.414       .  A
C1121      C1122   1.392       .  A
C1121      F1124   1.358       .  S
C1122      F1126   1.358       .  S
C1129      C1130   1.410       .  A
C1129      C1134   1.400       .  A
C1129      F1147   1.358       .  S
C1130      C1135   1.495       .  S
C1130      C1131   1.410       .  A
C1131      C1132   1.402       .  A
C1131      F1136   1.358       .  S
C1132      C1133   1.408       .  A
C1132      F1148   1.358       .  S
C1133      C1134   1.405       .  A
C1134      F1137   1.358       .  S
C1135      C1138   1.409       .  A
C1135      C1142   1.410       .  A
C1138      C1139   1.398       .  A
C1138      F1143   1.358       .  S
C1139      C1140   1.407       .  A
C1139      F1145   1.358       .  S
C1140      C1141   1.409       .  A
C1141      C1142   1.404       .  A
C1141      F1144   1.358       .  S
C1142      F1146   1.357       .  S
C1149      C1150   1.408       .  A
C1149      C1154   1.402       .  A
C1149      F1167   1.357       .  S
C1150      C1155   1.483       .  S
C1150      C1151   1.405       .  A
C1151      C1152   1.400       .  A
C1151      F1156   1.358       .  S
C1152      C1153   1.405       .  A
C1152      F1168   1.359       .  S
C1153      C1154   1.402       .  A
C1154      F1157   1.358       .  S
C1155      C1158   1.403       .  A
C1155      C1162   1.404       .  A
C1158      C1159   1.397       .  A
C1158      F1163   1.358       .  S
C1159      C1160   1.412       .  A
C1159      F1165   1.358       .  S
C1160      C1161   1.415       .  A
C1161      C1162   1.405       .  A
C1161      F1164   1.358       .  S
C1162      F1166   1.358       .  S
C1169      C1170   1.409       .  A
C1169      C1174   1.402       .  A
C1169      F1187   1.358       .  S
C1170      C1175   1.485       .  S
C1170      C1171   1.403       .  A
C1171      C1172   1.394       .  A
C1171      F1176   1.358       .  S
C1172      C1173   1.414       .  A
C1172      F1188   1.358       .  S
C1173      C1174   1.408       .  A
C1174      F1177   1.357       .  S
C1175      C1178   1.408       .  A
C1175      C1182   1.405       .  A
C1178      C1179   1.401       .  A
C1178      F1183   1.357       .  S
C1179      C1180   1.409       .  A
C1179      F1185   1.358       .  S
C1180      C1181   1.412       .  A
C1181      C1182   1.394       .  A
C1181      F1184   1.358       .  S
C1182      F1186   1.359       .  S
C1189      C1190   1.404       .  A
C1189      C1194   1.395       .  A
C1189      F1207   1.358       .  S
C1190      C1195   1.484       .  S
C1190      C1191   1.406       .  A
C1191      C1192   1.401       .  A
C1191      F1196   1.357       .  S
C1192      C1193   1.410       .  A
C1192      F1208   1.358       .  S
C1193      C1194   1.412       .  A
C1194      F1197   1.358       .  S
C1195      C1198   1.405       .  A
C1195      C1202   1.406       .  A
C1198      C1199   1.399       .  A
C1198      F1203   1.358       .  S
C1199      C1200   1.410       .  A
C1199      F1205   1.358       .  S
C1200      C1201   1.408       .  A
C1201      C1202   1.399       .  A
C1201      F1204   1.358       .  S
C1202      F1206   1.358       .  S
C1209      C1210   1.404       .  A
C1209      C1214   1.397       .  A
C1209      F1227   1.358       .  S
C1210      C1215   1.475       .  S
C1210      C1211   1.403       .  A
C1211      C1212   1.399       .  A
C1211      F1216   1.358       .  S
C1212      C1213   1.410       .  A
C1212      F1228   1.359       .  S
C1213      C1214   1.404       .  A
C1214      F1217   1.358       .  S
C1215      C1218   1.404       .  A
C1215      C1222   1.404       .  A
C1218      C1219   1.400       .  A
C1218      F1223   1.357       .  S
C1219      C1220   1.407       .  A
C1219      F1225   1.358       .  S
C1220      C1221   1.406       .  A
C1221      C1222   1.395       .  A
C1221      F1224   1.359       .  S
C1222      F1226   1.358       .  S
C1229      C1230   1.406       .  A
C1229      C1234   1.404       .  A
C1229      F1247   1.358       .  S
C1230      C1235   1.483       .  S
C1230      C1231   1.404       .  A
C1231      C1232   1.401       .  A
C1231      F1236   1.358       .  S
C1232      C1233   1.409       .  A
C1232      F1248   1.358       .  S
C1233      C1234   1.410       .  A
C1234      F1237   1.358       .  S
C1235      C1238   1.407       .  A
C1235      C1242   1.400       .  A
C1238      C1239   1.408       .  A
C1238      F1243   1.357       .  S
C1239      C1240   1.411       .  A
C1239      F1245   1.358       .  S
C1240      C1241   1.414       .  A
C1241      C1242   1.394       .  A
C1241      F1244   1.358       .  S
C1242      F1246   1.358       .  S
C1249      C1250   1.404       .  A
C1249      C1254   1.395       .  A
C1249      F1267   1.358       .  S
C1250      C1255   1.496       .  S
C1250      C1251   1.412       .  A
C1251      C1252   1.410       .  A
C1251      F1256   1.357       .  S
C1252      C1253   1.409       .  A
C1252      F1268   1.357       .  S
C1253      C1254   1.414       .  A
C1254      F1257   1.358       .  S
C1255      C1258   1.405       .  A
C1255      C1262   1.412       .  A
C1258      C1259   1.400       .  A
C1258      F1263   1.357       .  S
C1259      C1260   1.412       .  A
C1259      F1265   1.358       .  S
C1260      C1261   1.409       .  A
C1261      C1262   1.406       .  A
C1261      F1264   1.358       .  S
C1262      F1266   1.358       .  S
C1269      C1270   1.409       .  A
C1269      C1274   1.403       .  A
C1269      F1287   1.358       .  S
C1270      C1275   1.493       .  S
C1270      C1271   1.407       .  A
C1271      C1272   1.401       .  A
C1271      F1276   1.358       .  S
C1272      C1273   1.410       .  A
C1272      F1288   1.358       .  S
C1273      C1274   1.407       .  A
C1274      F1277   1.358       .  S
C1275      C1278   1.409       .  A
C1275      C1282   1.406       .  A
C1278      C1279   1.406       .  A
C1278      F1283   1.358       .  S
C1279      C1280   1.409       .  A
C1279      F1285   1.358       .  S
C1280      C1281   1.410       .  A
C1281      C1282   1.398       .  A
C1281      F1284   1.358       .  S
C1282      F1286   1.358       .  S
C1289      C1290   1.403       .  A
C1289      C1294   1.393       .  A
C1289      F1307   1.359       .  S
C1290      C1295   1.474       .  S
C1290      C1291   1.404       .  A
C1291      C1292   1.398       .  A
C1291      F1296   1.358       .  S
C1292      C1293   1.407       .  A
C1292      F1308   1.357       .  S
C1293      C1294   1.410       .  A
C1294      F1297   1.359       .  S
C1295      C1298   1.404       .  A
C1295      C1302   1.405       .  A
C1298      C1299   1.395       .  A
C1298      F1303   1.358       .  S
C1299      C1300   1.405       .  A
C1299      F1305   1.358       .  S
C1300      C1301   1.406       .  A
C1301      C1302   1.396       .  A
C1301      F1304   1.358       .  S
C1302      F1306   1.358       .  S
C1309      C1310   1.403       .  A
C1309      C1314   1.395       .  A
C1309      F1327   1.358       .  S
C1310      C1315   1.483       .  S
C1310      C1311   1.407       .  A
C1311      C1312   1.402       .  A
C1311      F1316   1.358       .  S
C1312      C1313   1.411       .  A
C1312      F1328   1.358       .  S
C1313      C1314   1.412       .  A
C1314      F1317   1.358       .  S
C1315      C1318   1.407       .  A
C1315      C1322   1.409       .  A
C1318      C1319   1.392       .  A
C1318      F1323   1.358       .  S
C1319      C1320   1.403       .  A
C1319      F1325   1.359       .  S
C1320      C1321   1.404       .  A
C1321      C1322   1.404       .  A
C1321      F1324   1.358       .  S
C1322      F1326   1.357       .  S
C1329      C1330   1.405       .  A
C1329      C1334   1.392       .  A
C1329      F1347   1.358       .  S
C1330      C1335   1.481       .  S
C1330      C1331   1.405       .  A
C1331      C1332   1.402       .  A
C1331      F1336   1.357       .  S
C1332      C1333   1.410       .  A
C1332      F1348   1.358       .  S
C1333      C1334   1.409       .  A
C1334      F1337   1.358       .  S
C1335      C1338   1.407       .  A
C1335      C1342   1.407       .  A
C1338      C1339   1.397       .  A
C1338      F1343   1.358       .  S
C1339      C1340   1.402       .  A
C1339      F1345   1.358       .  S
C1340      C1341   1.402       .  A
C1341      C1342   1.399       .  A
C1341      F1344   1.358       .  S
C1342      F1346   1.358       .  S
C1349      C1350   1.407       .  A
C1349      C1354   1.403       .  A
C1349      F1367   1.358       .  S
C1350      C1355   1.483       .  S
C1350      C1351   1.401       .  A
C1351      C1352   1.397       .  A
C1351      F1356   1.358       .  S
C1352      C1353   1.417       .  A
C1352      F1368   1.358       .  S
C1353      C1354   1.409       .  A
C1354      F1357   1.357       .  S
C1355      C1358   1.407       .  A
C1355      C1362   1.401       .  A
C1358      C1359   1.405       .  A
C1358      F1363   1.358       .  S
C1359      C1360   1.412       .  A
C1359      F1365   1.358       .  S
C1360      C1361   1.414       .  A
C1361      C1362   1.394       .  A
C1361      F1364   1.358       .  S
C1362      F1366   1.358       .  S
C1369      C1370   1.407       .  A
C1369      C1374   1.402       .  A
C1369      F1387   1.358       .  S
C1370      C1375   1.482       .  S
C1370      C1371   1.407       .  A
C1371      C1372   1.397       .  A
C1371      F1376   1.358       .  S
C1372      C1373   1.401       .  A
C1372      F1388   1.358       .  S
C1373      C1374   1.404       .  A
C1374      F1377   1.358       .  S
C1375      C1378   1.406       .  A
C1375      C1382   1.402       .  A
C1378      C1379   1.401       .  A
C1378      F1383   1.358       .  S
C1379      C1380   1.410       .  A
C1379      F1385   1.358       .  S
C1380      C1381   1.413       .  A
C1381      C1382   1.398       .  A
C1381      F1384   1.358       .  S
C1382      F1386   1.358       .  S
C1389      C1390   1.407       .  A
C1389      C1394   1.400       .  A
C1389      F1407   1.358       .  S
C1390      C1395   1.487       .  S
C1390      C1391   1.407       .  A
C1391      C1392   1.399       .  A
C1391      F1396   1.358       .  S
C1392      C1393   1.408       .  A
C1392      F1408   1.358       .  S
C1393      C1394   1.409       .  A
C1394      F1397   1.358       .  S
C1395      C1398   1.409       .  A
C1395      C1402   1.407       .  A
C1398      C1399   1.404       .  A
C1398      F1403   1.358       .  S
C1399      C1400   1.406       .  A
C1399      F1405   1.358       .  S
C1400      C1401   1.404       .  A
C1401      C1402   1.396       .  A
C1401      F1404   1.358       .  S
C1402      F1406   1.358       .  S
C1409      C1410   1.402       .  A
C1409      C1414   1.393       .  A
C1409      F1427   1.358       .  S
C1410      C1415   1.482       .  S
C1410      C1411   1.407       .  A
C1411      C1412   1.405   1_455  A
C1411      F1416   1.358       .  S
C1412      C1413   1.410       .  A
C1412      F1428   1.358       .  S
C1413      C1414   1.412   1_655  A
C1414      F1417   1.358       .  S
C1415      C1418   1.402       .  A
C1415      C1422   1.407       .  A
C1418      C1419   1.397       .  A
C1418      F1423   1.358       .  S
C1419      C1420   1.413       .  A
C1419      F1425   1.358       .  S
C1420      C1421   1.410       .  A
C1421      C1422   1.401       .  A
C1421      F1424   1.358       .  S
C1422      F1426   1.358       .  S
C1429      C1430   1.401       .  A
C1429      C1434   1.395       .  A
C1429      F1447   1.358       .  S
C1430      C1435   1.479       .  S
C1430      C1431   1.404       .  A
C1431      C1432   1.403       .  A
C1431      F1436   1.358       .  S
C1432      C1433   1.413       .  A
C1432      F1448   1.358       .  S
C1433      C1434   1.413       .  A
C1434      F1437   1.358       .  S
C1435      C1438   1.407       .  A
C1435      C1442   1.405       .  A
C1438      C1439   1.402       .  A
C1438      F1443   1.358       .  S
C1439      C1440   1.404       .  A
C1439      F1445   1.358       .  S
C1440      C1441   1.402       .  A
C1441      C1442   1.397       .  A
C1441      F1444   1.358       .  S
C1442      F1446   1.358       .  S
C1449      C1450   1.407       .  A
C1449      C1454   1.402       .  A
C1449      F1467   1.358       .  S
C1450      C1455   1.474       .  S
C1450      C1451   1.403       .  A
C1451      C1452   1.393       .  A
C1451      F1456   1.358       .  S
C1452      C1453   1.402       .  A
C1452      F1468   1.359       .  S
C1453      C1454   1.404       .  A
C1454      F1457   1.358       .  S
C1455      C1458   1.403       .  A
C1455      C1462   1.401       .  A
C1458      C1459   1.397       .  A
C1458      F1463   1.358       .  S
C1459      C1460   1.410       .  A
C1459      F1465   1.358       .  S
C1460      C1461   1.413       .  A
C1461      C1462   1.398       .  A
C1461      F1464   1.358       .  S
C1462      F1466   1.358       .  S
C1469      C1470   1.400       .  A
C1469      C1474   1.392       .  A
C1469      F1487   1.359       .  S
C1470      C1475   1.469       .  S
C1470      C1471   1.403       .  A
C1471      C1472   1.402       .  A
C1471      F1476   1.357       .  S
C1472      C1473   1.407       .  A
C1472      F1488   1.356       .  S
C1473      C1474   1.410       .  A
C1474      F1477   1.359       .  S
C1475      C1478   1.401       .  A
C1475      C1482   1.402       .  A
C1478      C1479   1.398       .  A
C1478      F1483   1.358       .  S
C1479      C1480   1.410       .  A
C1479      F1485   1.358       .  S
C1480      C1481   1.410       .  A
C1481      C1482   1.396       .  A
C1481      F1484   1.359       .  S
C1482      F1486   1.358       .  S
C1489      C1490   1.403       .  A
C1489      C1494   1.394       .  A
C1489      F1507   1.359       .  S
C1490      C1495   1.485       .  S
C1490      C1491   1.407       .  A
C1491      C1492   1.404       .  A
C1491      F1496   1.357       .  S
C1492      C1493   1.410       .  A
C1492      F1508   1.358       .  S
C1493      C1494   1.414       .  A
C1494      F1497   1.358       .  S
C1495      C1498   1.405       .  A
C1495      C1502   1.406       .  A
C1498      C1499   1.399       .  A
C1498      F1503   1.358       .  S
C1499      C1500   1.411   1_455  A
C1499      F1505   1.358       .  S
C1500      C1501   1.411       .  A
C1501      C1502   1.399   1_655  A
C1501      F1504   1.358       .  S
C1502      F1506   1.358   1_455  S
C1509      C1510   1.406       .  A
C1509      C1514   1.398       .  A
C1509      F1527   1.358       .  S
C1510      C1515   1.490       .  S
C1510      C1511   1.410       .  A
C1511      C1512   1.403       .  A
C1511      F1516   1.358       .  S
C1512      C1513   1.407       .  A
C1512      F1528   1.358       .  S
C1513      C1514   1.408       .  A
C1514      F1517   1.358       .  S
C1515      C1518   1.410       .  A
C1515      C1522   1.408   1_565  A
C1518      C1519   1.400       .  A
C1518      F1523   1.358       .  S
C1519      C1520   1.401   1_565  A
C1519      F1525   1.358       .  S
C1520      C1521   1.405       .  A
C1521      C1522   1.402       .  A
C1521      F1524   1.357       .  S
C1522      F1526   1.358       .  S
C1529      C1530   1.406       .  A
C1529      C1534   1.398       .  A
C1529      F1547   1.358       .  S
C1530      C1535   1.482       .  S
C1530      C1531   1.405       .  A
C1531      C1532   1.398       .  A
C1531      F1536   1.358       .  S
C1532      C1533   1.410       .  A
C1532      F1548   1.358       .  S
C1533      C1534   1.409       .  A
C1534      F1537   1.358       .  S
C1535      C1538   1.409       .  A
C1535      C1542   1.406       .  A
C1538      C1539   1.402       .  A
C1538      F1543   1.358       .  S
C1539      C1540   1.403       .  A
C1539      F1545   1.358       .  S
C1540      C1541   1.404       .  A
C1541      C1542   1.393       .  A
C1541      F1544   1.359       .  S
C1542      F1546   1.358       .  S
C1549      C1550   1.409       .  A
C1549      C1554   1.404       .  A
C1549      F1567   1.358       .  S
C1550      C1555   1.494       .  S
C1550      C1551   1.407       .  A
C1551      C1552   1.401       .  A
C1551      F1556   1.358       .  S
C1552      C1553   1.410       .  A
C1552      F1568   1.358       .  S
C1553      C1554   1.408       .  A
C1554      F1557   1.358       .  S
C1555      C1558   1.409       .  A
C1555      C1562   1.407       .  A
C1558      C1559   1.407   1_545  A
C1558      F1563   1.358       .  S
C1559      C1560   1.408       .  A
C1559      F1565   1.358       .  S
C1560      C1561   1.409   1_565  A
C1561      C1562   1.400       .  A
C1561      F1564   1.358       .  S
C1562      F1566   1.358       .  S
C1569      C1570   1.404       .  A
C1569      C1574   1.401       .  A
C1569      F1587   1.358       .  S
C1570      C1575   1.485       .  S
C1570      C1571   1.406       .  A
C1571      C1572   1.401       .  A
C1571      F1576   1.358       .  S
C1572      C1573   1.408       .  A
C1572      F1588   1.358       .  S
C1573      C1574   1.410       .  A
C1574      F1577   1.358       .  S
C1575      C1578   1.404       .  A
C1575      C1582   1.404       .  A
C1578      C1579   1.402       .  A
C1578      F1583   1.358       .  S
C1579      C1580   1.412       .  A
C1579      F1585   1.358       .  S
C1580      C1581   1.413       .  A
C1581      C1582   1.399       .  A
C1581      F1584   1.358       .  S
C1582      F1586   1.358       .  S
C1589      C1590   1.408       .  A
C1589      C1594   1.405       .  A
C1589      F1607   1.357       .  S
C1590      C1595   1.490       .  S
C1590      C1591   1.408       .  A
C1591      C1592   1.398       .  A
C1591      F1596   1.358       .  S
C1592      C1593   1.407       .  A
C1592      F1608   1.358       .  S
C1593      C1594   1.408       .  A
C1594      F1597   1.358       .  S
C1595      C1598   1.408       .  A
C1595      C1602   1.406       .  A
C1598      C1599   1.403       .  A
C1598      F1603   1.358       .  S
C1599      C1600   1.408   1_455  A
C1599      F1605   1.358   1_455  S
C1600      C1601   1.409   1_655  A
C1601      C1602   1.400       .  A
C1601      F1604   1.358       .  S
C1602      F1606   1.358       .  S
C1609      C1610   1.406       .  A
C1609      C1614   1.405       .  A
C1609      F1627   1.358       .  S
C1610      C1615   1.484       .  S
C1610      C1611   1.402       .  A
C1611      C1612   1.396       .  A
C1611      F1616   1.358       .  S
C1612      C1613   1.413       .  A
C1612      F1628   1.358       .  S
C1613      C1614   1.412       .  A
C1614      F1617   1.357       .  S
C1615      C1618   1.405       .  A
C1615      C1622   1.404       .  A
C1618      C1619   1.402       .  A
C1618      F1623   1.358       .  S
C1619      C1620   1.412       .  A
C1619      F1625   1.358       .  S
C1620      C1621   1.411       .  A
C1621      C1622   1.400       .  A
C1621      F1624   1.358       .  S
C1622      F1626   1.358       .  S
C1629      C1630   1.404       .  A
C1629      C1634   1.400       .  A
C1629      F1647   1.358       .  S
C1630      C1635   1.487       .  S
C1630      C1631   1.406       .  A
C1631      C1632   1.402       .  A
C1631      F1636   1.358       .  S
C1632      C1633   1.412       .  A
C1632      F1648   1.358       .  S
C1633      C1634   1.414       .  A
C1634      F1637   1.358       .  S
C1635      C1638   1.410       .  A
C1635      C1642   1.405       .  A
C1638      C1639   1.408       .  A
C1638      F1643   1.358       .  S
C1639      C1640   1.406       .  A
C1639      F1645   1.358       .  S
C1640      C1641   1.404       .  A
C1641      C1642   1.395       .  A
C1641      F1644   1.358       .  S
C1642      F1646   1.358       .  S
C1649      C1650   1.404       .  A
C1649      C1654   1.402       .  A
C1649      F1667   1.358       .  S
C1650      C1655   1.485       .  S
C1650      C1651   1.405       .  A
C1651      C1652   1.402       .  A
C1651      F1656   1.358       .  S
C1652      C1653   1.412       .  A
C1652      F1668   1.358       .  S
C1653      C1654   1.411       .  A
C1654      F1657   1.358       .  S
C1655      C1658   1.409       .  A
C1655      C1662   1.403       .  A
C1658      C1659   1.407       .  A
C1658      F1663   1.357       .  S
C1659      C1660   1.405       .  A
C1659      F1665   1.357       .  S
C1660      C1661   1.410       .  A
C1661      C1662   1.397       .  A
C1661      F1664   1.359       .  S
C1662      F1666   1.358       .  S
C1669      C1670   1.408       .  A
C1669      C1674   1.408       .  A
C1669      F1687   1.357       .  S
C1670      C1675   1.491       .  S
C1670      C1671   1.404       .  A
C1671      C1672   1.398       .  A
C1671      F1676   1.358       .  S
C1672      C1673   1.413       .  A
C1672      F1688   1.358       .  S
C1673      C1674   1.410       .  A
C1674      F1677   1.357       .  S
C1675      C1678   1.407       .  A
C1675      C1682   1.404       .  A
C1678      C1679   1.405       .  A
C1678      F1683   1.358       .  S
C1679      C1680   1.412       .  A
C1679      F1685   1.358       .  S
C1680      C1681   1.414       .  A
C1681      C1682   1.403       .  A
C1681      F1684   1.358       .  S
C1682      F1686   1.358       .  S
C1689      C1690   1.405       .  A
C1689      C1694   1.396       .  A
C1689      F1707   1.358       .  S
C1690      C1695   1.492       .  S
C1690      C1691   1.410       .  A
C1691      C1692   1.404       .  A
C1691      F1696   1.358       .  S
C1692      C1693   1.410       .  A
C1692      F1708   1.358   1_565  S
C1693      C1694   1.413       .  A
C1694      F1697   1.358       .  S
C1695      C1698   1.406       .  A
C1695      C1702   1.412       .  A
C1698      C1699   1.396       .  A
C1698      F1703   1.358       .  S
C1699      C1700   1.408       .  A
C1699      F1705   1.358       .  S
C1700      C1701   1.404       .  A
C1701      C1702   1.406       .  A
C1701      F1704   1.357       .  S
C1702      F1706   1.358       .  S
C1709      C1710   1.408       .  A
C1709      C1714   1.401       .  A
C1709      F1727   1.358       .  S
C1710      C1715   1.495       .  S
C1710      C1711   1.409       .  A
C1711      C1712   1.405       .  A
C1711      F1716   1.358       .  S
C1712      C1713   1.409       .  A
C1712      F1728   1.358   1_655  S
C1713      C1714   1.407       .  A
C1714      F1717   1.358       .  S
C1715      C1718   1.408       .  A
C1715      C1722   1.408       .  A
C1718      C1719   1.404       .  A
C1718      F1723   1.358       .  S
C1719      C1720   1.409       .  A
C1719      F1725   1.358       .  S
C1720      C1721   1.409       .  A
C1721      C1722   1.403       .  A
C1721      F1724   1.358       .  S
C1722      F1726   1.358       .  S
C1729      C1730   1.407       .  A
C1729      C1734   1.406       .  A
C1729      F1747   1.357       .  S
C1730      C1735   1.480       .  S
C1730      C1731   1.401       .  A
C1731      C1732   1.393       .  A
C1731      F1736   1.359       .  S
C1732      C1733   1.410       .  A
C1732      F1748   1.358       .  S
C1733      C1734   1.407       .  A
C1734      F1737   1.357       .  S
C1735      C1738   1.404       .  A
C1735      C1742   1.404       .  A
C1738      C1739   1.399       .  A
C1738      F1743   1.358       .  S
C1739      C1740   1.410       .  A
C1739      F1745   1.358       .  S
C1740      C1741   1.412       .  A
C1741      C1742   1.401       .  A
C1741      F1744   1.358       .  S
C1742      F1746   1.358       .  S
C1749      C1750   1.406       .  A
C1749      C1754   1.401       .  A
C1749      F1767   1.358       .  S
C1750      C1755   1.486       .  S
C1750      C1751   1.405       .  A
C1751      C1752   1.397       .  A
C1751      F1756   1.358       .  S
C1752      C1753   1.412       .  A
C1752      F1768   1.357       .  S
C1753      C1754   1.411       .  A
C1754      F1757   1.358       .  S
C1755      C1758   1.406       .  A
C1755      C1762   1.405       .  A
C1758      C1759   1.400       .  A
C1758      F1763   1.358       .  S
C1759      C1760   1.411       .  A
C1759      F1765   1.357       .  S
C1760      C1761   1.411       .  A
C1761      C1762   1.397       .  A
C1761      F1764   1.359       .  S
C1762      F1766   1.358       .  S
C1769      C1770   1.405       .  A
C1769      C1774   1.395       .  A
C1769      F1787   1.358       .  S
C1770      C1775   1.479       .  S
C1770      C1771   1.408       .  A
C1771      C1772   1.401       .  A
C1771      F1776   1.357       .  S
C1772      C1773   1.403       .  A
C1772      F1788   1.358       .  S
C1773      C1774   1.405       .  A
C1774      F1777   1.359       .  S
C1775      C1778   1.405       .  A
C1775      C1782   1.402       .  A
C1778      C1779   1.401       .  A
C1778      F1783   1.358       .  S
C1779      C1780   1.410       .  A
C1779      F1785   1.358       .  S
C1780      C1781   1.412       .  A
C1781      C1782   1.395       .  A
C1781      F1784   1.358       .  S
C1782      F1786   1.358       .  S
C1789      C1790   1.405       .  A
C1789      C1794   1.398       .  A
C1789      F1807   1.358       .  S
C1790      C1795   1.494       .  S
C1790      C1791   1.411       .  A
C1791      C1792   1.403       .  A
C1791      F1796   1.358       .  S
C1792      C1793   1.408       .  A
C1792      F1808   1.358       .  S
C1793      C1794   1.414       .  A
C1794      F1797   1.358       .  S
C1795      C1798   1.405       .  A
C1795      C1802   1.411       .  A
C1798      C1799   1.395       .  A
C1798      F1803   1.359       .  S
C1799      C1800   1.415       .  A
C1799      F1805   1.358       .  S
C1800      C1801   1.410       .  A
C1801      C1802   1.407       .  A
C1801      F1804   1.357   1_655  S
C1802      F1806   1.357       .  S
C1809      C1810   1.406       .  A
C1809      C1814   1.402       .  A
C1809      F1827   1.358       .  S
C1810      C1815   1.486       .  S
C1810      C1811   1.405       .  A
C1811      C1812   1.403       .  A
C1811      F1816   1.357       .  S
C1812      C1813   1.408       .  A
C1812      F1828   1.358   1_545  S
C1813      C1814   1.408       .  A
C1814      F1817   1.358       .  S
C1815      C1818   1.406       .  A
C1815      C1822   1.406       .  A
C1818      C1819   1.403       .  A
C1818      F1823   1.357       .  S
C1819      C1820   1.407       .  A
C1819      F1825   1.358       .  S
C1820      C1821   1.408       .  A
C1821      C1822   1.402       .  A
C1821      F1824   1.358       .  S
C1822      F1826   1.358       .  S
C1829      C1830   1.404       .  A
C1829      C1834   1.395       .  A
C1829      F1847   1.358       .  S
C1830      C1835   1.480       .  S
C1830      C1831   1.404       .  A
C1831      C1832   1.400       .  A
C1831      F1836   1.358       .  S
C1832      C1833   1.412       .  A
C1832      F1848   1.358       .  S
C1833      C1834   1.412       .  A
C1834      F1837   1.358       .  S
C1835      C1838   1.408       .  A
C1835      C1842   1.405       .  A
C1838      C1839   1.400       .  A
C1838      F1843   1.358       .  S
C1839      C1840   1.401       .  A
C1839      F1845   1.358       .  S
C1840      C1841   1.404       .  A
C1841      C1842   1.396       .  A
C1841      F1844   1.359       .  S
C1842      F1846   1.358       .  S
C1849      C1850   1.406       .  A
C1849      C1854   1.398       .  A
C1849      F1867   1.358       .  S
C1850      C1855   1.490       .  S
C1850      C1851   1.408       .  A
C1851      C1852   1.407       .  A
C1851      F1856   1.358       .  S
C1852      C1853   1.409       .  A
C1852      F1868   1.358   1_655  S
C1853      C1854   1.407       .  A
C1854      F1857   1.358       .  S
C1855      C1858   1.408       .  A
C1855      C1862   1.407       .  A
C1858      C1859   1.402       .  A
C1858      F1863   1.358       .  S
C1859      C1860   1.404       .  A
C1859      F1865   1.358       .  S
C1860      C1861   1.406       .  A
C1861      C1862   1.403       .  A
C1861      F1864   1.358       .  S
C1862      F1866   1.358       .  S
C1869      C1870   1.408       .  A
C1869      C1874   1.398       .  A
C1869      F1887   1.358       .  S
C1870      C1875   1.488       .  S
C1870      C1871   1.406       .  A
C1871      C1872   1.400       .  A
C1871      F1876   1.357       .  S
C1872      C1873   1.408       .  A
C1872      F1888   1.358       .  S
C1873      C1874   1.409       .  A
C1874      F1877   1.358       .  S
C1875      C1878   1.405       .  A
C1875      C1882   1.411       .  A
C1878      C1879   1.395       .  A
C1878      F1883   1.358       .  S
C1879      C1880   1.409       .  A
C1879      F1885   1.359       .  S
C1880      C1881   1.405       .  A
C1881      C1882   1.403       .  A
C1881      F1884   1.358       .  S
C1882      F1886   1.358       .  S
C1889      C1890   1.405       .  A
C1889      C1894   1.396       .  A
C1889      F1907   1.358       .  S
C1890      C1895   1.479       .  S
C1890      C1891   1.406       .  A
C1891      C1892   1.403       .  A
C1891      F1896   1.358       .  S
C1892      C1893   1.405       .  A
C1892      F1908   1.358       .  S
C1893      C1894   1.401       .  A
C1894      F1897   1.358       .  S
C1895      C1898   1.402       .  A
C1895      C1902   1.404       .  A
C1898      C1899   1.398       .  A
C1898      F1903   1.358       .  S
C1899      C1900   1.411       .  A
C1899      F1905   1.358       .  S
C1900      C1901   1.412       .  A
C1901      C1902   1.399       .  A
C1901      F1904   1.358       .  S
C1902      F1906   1.358       .  S
C1909      C1910   1.406       .  A
C1909      C1914   1.401       .  A
C1909      F1927   1.358       .  S
C1910      C1915   1.495       .  S
C1910      C1911   1.407       .  A
C1911      C1912   1.407       .  A
C1911      F1916   1.358       .  S
C1912      C1913   1.414       .  A
C1912      F1928   1.358       .  S
C1913      C1914   1.413       .  A
C1914      F1917   1.358       .  S
C1915      C1918   1.408       .  A
C1915      C1922   1.407       .  A
C1918      C1919   1.405       .  A
C1918      F1923   1.358       .  S
C1919      C1920   1.410   1_565  A
C1919      F1925   1.358       .  S
C1920      C1921   1.410       .  A
C1921      C1922   1.403   1_545  A
C1921      F1924   1.358       .  S
C1922      F1926   1.358   1_565  S
C1929      C1930   1.403       .  A
C1929      C1934   1.396       .  A
C1929      F1947   1.358       .  S
C1930      C1935   1.469       .  S
C1930      C1931   1.401       .  A
C1931      C1932   1.397       .  A
C1931      F1936   1.358       .  S
C1932      C1933   1.410       .  A
C1932      F1948   1.358       .  S
C1933      C1934   1.405       .  A
C1934      F1937   1.358       .  S
C1935      C1938   1.404       .  A
C1935      C1942   1.401       .  A
C1938      C1939   1.402       .  A
C1938      F1943   1.357       .  S
C1939      C1940   1.406       .  A
C1939      F1945   1.358       .  S
C1940      C1941   1.405       .  A
C1941      C1942   1.391       .  A
C1941      F1944   1.359       .  S
C1942      F1946   1.359       .  S
C1949      C1950   1.401       .  A
C1949      C1954   1.396       .  A
C1949      F1967   1.358       .  S
C1950      C1955   1.483       .  S
C1950      C1951   1.407       .  A
C1951      C1952   1.403       .  A
C1951      F1956   1.358       .  S
C1952      C1953   1.409       .  A
C1952      F1968   1.357       .  S
C1953      C1954   1.416       .  A
C1954      F1957   1.358       .  S
C1955      C1958   1.401       .  A
C1955      C1962   1.407       .  A
C1958      C1959   1.394       .  A
C1958      F1963   1.359       .  S
C1959      C1960   1.414       .  A
C1959      F1965   1.358       .  S
C1960      C1961   1.411       .  A
C1961      C1962   1.405       .  A
C1961      F1964   1.357       .  S
C1962      F1966   1.358       .  S
