geometry optimzed in LAMMPS
_audit_creation_date              2020-12-01 
_audit_creation_method            'lammps2cif' 
_symmetry_space_group_name_H-M    'P1' 
_symmetry_Int_Tables_number       1 
_symmetry_cell_setting            triclinic 
loop_ 
_symmetry_equiv_pos_as_xyz 
  x,y,z 
_cell_length_a                    30.06820468 
_cell_length_b                    31.229643699889717 
_cell_length_c                    55.61746867166715 
_cell_angle_alpha                 89.85313636862325 
_cell_angle_beta                  90.00429129070606 
_cell_angle_gamma                 89.23620728241146 
loop_ 
_atom_site_label 
_atom_site_type_symbol 
_atom_site_fract_x 
_atom_site_fract_y 
_atom_site_fract_z 
_atom_site_charge 
O1          O  0.23428279  0.80445687  0.26718342    -0.72800
O2          O  0.23173327  0.69203379  0.23198561    -0.73800
O3          O  0.28717018  0.76553047  0.23105366    -0.62400
O4          O  0.17967353  0.73154073  0.26837584    -0.70800
O5          O  0.13739517  0.76118079  0.23991695    -0.70300
O6          O  0.24485869  0.79575520  0.20280331    -0.61600
O7          O  0.19022697  0.72288604  0.20362932    -0.74100
O8          O  0.19201538  0.83446471  0.23886356    -0.72900
Cu9        Cu  0.23482685  0.74732364  0.25061953     1.04600
Cu10       Cu  0.18958202  0.77954525  0.22033511     1.04300
C11         C  0.21362838  0.83707057  0.25854570     0.93400
C12         C  0.21019479  0.68990851  0.21221479     0.92600
C13         C  0.28312422  0.78621369  0.21130974     0.84700
C14         C  0.14144250  0.74120375  0.25989267     0.91000
N15         N  0.55191175  0.81460864  0.16771911    -0.27100
N16         N  0.52933659  0.80297954  0.18697320    -0.35000
C17         C  0.55752563  0.78788430  0.20372468     0.01200
C18         C  0.60007587  0.79026725  0.19467543     0.07200
C19         C  0.59554644  0.80754256  0.17182829    -0.05900
H20         H  0.54768504  0.77625296  0.22125481     0.07900
H21         H  0.62182372  0.81402176  0.15908811     0.09100
Cu22       Cu  0.46147434  0.80712293  0.18974556     0.44200
Cu23       Cu  0.52056041  0.83736035  0.13687078     0.42000
Cu24       Cu  0.39807393  0.84505705  0.13930373     0.43900
N25         N  0.39335948  0.80890933  0.18916362    -0.34500
N26         N  0.36941745  0.82305829  0.17080956    -0.28800
C27         C  0.32607025  0.81780245  0.17588771    -0.04900
C28         C  0.32311340  0.79924076  0.19844536     0.07400
C29         C  0.36628140  0.79416070  0.20633958     0.01100
H30         H  0.29893908  0.82582191  0.16384138     0.08800
H31         H  0.37734466  0.78007363  0.22313747     0.07900
N32         N  0.43601994  0.85781828  0.10905262    -0.36000
N33         N  0.47992306  0.85464531  0.10812274    -0.28100
C34         C  0.49322749  0.86140511  0.08536996    -0.03400
C35         C  0.45603435  0.86916391  0.07128950     0.05200
C36         C  0.42035413  0.86677718  0.08693309     0.03300
H37         H  0.52741143  0.85920259  0.07939228     0.08400
H38         H  0.38541787  0.86941019  0.08246800     0.07300
N39         N  0.32259511  0.81486851  0.79959160    -0.23900
N40         N  0.34595522  0.80013815  0.78118000    -0.35000
C41         C  0.31846326  0.78944605  0.76329582     0.01200
C42         C  0.27552072  0.79772430  0.77064172     0.07200
C43         C  0.27908445  0.81396402  0.79374512    -0.05900
H44         H  0.32906574  0.77582837  0.74633215     0.07900
H45         H  0.25214795  0.82338450  0.80558480     0.09100
Cu46       Cu  0.41366950  0.79215863  0.78068706     0.44200
Cu47       Cu  0.35236048  0.83306035  0.83182482     0.42000
Cu48       Cu  0.47503173  0.82052247  0.83195216     0.43900
N49         N  0.48130957  0.78415357  0.78256267    -0.34500
N50         N  0.50485875  0.79540751  0.80148152    -0.28800
C51         C  0.54822726  0.78830083  0.79679786    -0.04900
C52         C  0.55166116  0.77156889  0.77383467     0.07400
C53         C  0.50864542  0.76924117  0.76537904     0.01100
H54         H  0.57515410  0.79541646  0.80900005     0.08800
H55         H  0.49803795  0.75885955  0.74776287     0.07900
N56         N  0.43732893  0.84199120  0.86074695    -0.36000
N57         N  0.39347775  0.84636879  0.86104930    -0.28100
C58         C  0.38075333  0.85854315  0.88326164    -0.03400
C59         C  0.41834504  0.86185895  0.89753203     0.05200
C60         C  0.45350532  0.85123378  0.88259030     0.03300
H61         H  0.34655346  0.86326586  0.88879179     0.08400
H62         H  0.48832985  0.84892550  0.88733156     0.07300
N63         N  0.05448530  0.70814248  0.30108240    -0.27100
N64         N  0.03102674  0.72161081  0.28239810    -0.35000
C65         C  0.05843701  0.73490837  0.26504476     0.01200
C66         C  0.10140398  0.72950536  0.27308323     0.07200
C67         C  0.09799686  0.71238455  0.29600307    -0.05900
H68         H  0.04771963  0.74785377  0.24789980     0.07900
H69         H  0.12492686  0.70440509  0.30819085     0.09100
Cu70       Cu  0.96321019  0.72241362  0.28075503     0.44200
Cu71       Cu  0.02452723  0.68714617  0.33250557     0.42000
Cu72       Cu  0.90134766  0.68544330  0.33068227     0.43900
N73         N  0.89536351  0.72087955  0.28077608    -0.34500
N74         N  0.87168303  0.70649068  0.29899554    -0.28800
C75         C  0.82826200  0.71014919  0.29336009    -0.04900
C76         C  0.82503208  0.72795884  0.27057295     0.07400
C77         C  0.86813586  0.73428693  0.26314618     0.01100
H78         H  0.80118489  0.70130617  0.30510269     0.08800
H79         H  0.87902062  0.74782282  0.24624525     0.07900
N80         N  0.93995139  0.67186655  0.36081084    -0.36000
N81         N  0.98394315  0.67269508  0.36154236    -0.28100
C82         C  0.99745063  0.66497813  0.38421700    -0.03400
C83         C  0.96028884  0.65898463  0.39843021     0.05200
C84         C  0.92445482  0.66350255  0.38297274     0.03300
H85         H  0.03180452  0.66479355  0.38999590     0.08400
H86         H  0.88954424  0.66216110  0.38753845     0.07300
N87         N  0.82429727  0.69742546  0.66781718    -0.27100
N88         N  0.84695237  0.71562372  0.68532269    -0.35000
C89         C  0.81879334  0.73004795  0.70220862     0.01200
C90         C  0.77619957  0.72055374  0.69513671     0.07200
C91         C  0.78064507  0.69978546  0.67325046    -0.05900
H92         H  0.82876341  0.74613656  0.71851629     0.07900
H93         H  0.75424409  0.68744122  0.66212374     0.09100
Cu94       Cu  0.91479293  0.72114044  0.68638129     0.44200
Cu95       Cu  0.85493143  0.67184104  0.63736195     0.42000
Cu96       Cu  0.97753392  0.68010425  0.63817840     0.43900
N97         N  0.98273108  0.72550172  0.68510212    -0.34500
N98         N  0.00674566  0.70979244  0.66725759    -0.28800
C99         C  0.04997784  0.71710101  0.67167999    -0.04900
C100        C  0.05286633  0.73857688  0.69336403     0.07400
C101        C  0.00966016  0.74332628  0.70137074     0.01100
H102        H  0.07715679  0.70722697  0.66011949     0.08800
H103        H  0.99859875  0.75795811  0.71797978     0.07900
N104        N  0.94053129  0.65837928  0.60943932    -0.36000
N105        N  0.89666802  0.65549901  0.60879425    -0.28100
C106        C  0.88430372  0.64521382  0.58628029    -0.03400
C107        C  0.92214362  0.64178292  0.57214227     0.05200
C108        C  0.95707658  0.65006387  0.58751527     0.03300
H109        H  0.85015310  0.64303301  0.58033997     0.08400
H110        H  0.99187480  0.65256924  0.58289968     0.07300
O111        O  0.19107288  0.80960725  0.69954592    -0.72800
O112        O  0.17918118  0.69829653  0.73540115    -0.73800
O113        O  0.13121688  0.73998078  0.69820202    -0.62400
O114        O  0.23902631  0.76811517  0.73699983    -0.70800
O115        O  0.19729159  0.80057919  0.76460655    -0.70300
O116        O  0.08932922  0.77212228  0.72586302    -0.61600
O117        O  0.13799891  0.73079026  0.76320422    -0.74100
O118        O  0.14946381  0.84242965  0.72703664    -0.72900
Cu119      Cu  0.18663131  0.75293618  0.71658594     1.04600
Cu120      Cu  0.14193469  0.78768848  0.74607918     1.04300
C121        C  0.17254338  0.84361194  0.70772735     0.93400
C122        C  0.15678235  0.69695441  0.75491055     0.92600
C123        C  0.09306930  0.75108114  0.70627696     0.84700
C124        C  0.23531854  0.78850591  0.75681640     0.91000
N125        N  0.53268076  0.21435267  0.16504103    -0.27100
N126        N  0.51004974  0.23486713  0.18192071    -0.35000
C127        C  0.53829491  0.24915031  0.19864714     0.01200
C128        C  0.58085920  0.23705313  0.19206573     0.07200
C129        C  0.57626998  0.21509498  0.17062454    -0.05900
H130        H  0.52836782  0.26613276  0.21475393     0.07900
H131        H  0.60244364  0.20007874  0.16014019     0.09100
Cu132      Cu  0.44174102  0.23965951  0.18304568     0.44200
Cu133      Cu  0.50187837  0.18548024  0.13597979     0.42000
Cu134      Cu  0.37962769  0.18241976  0.13918205     0.43900
N135        N  0.37363100  0.23440512  0.18434796    -0.34500
N136        N  0.35028684  0.21269746  0.16849700    -0.28800
C137        C  0.30712688  0.21422874  0.17494170    -0.04900
C138        C  0.30354812  0.23786315  0.19591631     0.07400
C139        C  0.34628667  0.25015547  0.20132795     0.01100
H140        H  0.28050606  0.19892215  0.16525383     0.08800
H141        H  0.35689295  0.26873654  0.21663932     0.07900
N142        N  0.41721573  0.16195011  0.10993135    -0.36000
N143        N  0.46112552  0.16332454  0.10865948    -0.28100
C144        C  0.47396210  0.15282691  0.08623768    -0.03400
C145        C  0.43636373  0.14469288  0.07269103     0.05200
C146        C  0.40108805  0.15052971  0.08837328     0.03300
H147        H  0.50796829  0.15380230  0.07994324     0.08400
H148        H  0.36604595  0.14931889  0.08406046     0.07300
N149        N  0.34458479  0.21822893  0.80226428    -0.27100
N150        N  0.36752434  0.23317365  0.78386904    -0.35000
C151        C  0.33951022  0.24797577  0.76694455     0.01200
C152        C  0.29664488  0.24198927  0.77488835     0.07200
C153        C  0.30086728  0.22298362  0.79736307    -0.05900
H154        H  0.34972114  0.26132084  0.74987045     0.07900
H155        H  0.27425882  0.21317326  0.80917229     0.09100
Cu156      Cu  0.43557108  0.23127815  0.78142131     0.44200
Cu157      Cu  0.37543941  0.19290399  0.83287878     0.42000
Cu158      Cu  0.49803924  0.18741841  0.83008490     0.43900
N159        N  0.50342339  0.22408574  0.78050956    -0.34500
N160        N  0.52702539  0.20737874  0.79830633    -0.28800
C161        C  0.57026112  0.20713517  0.79207375    -0.04900
C162        C  0.57356743  0.22465012  0.76927767     0.07400
C163        C  0.53065857  0.23502495  0.76249722     0.01100
H164        H  0.59717884  0.19562592  0.80337938     0.08800
H165        H  0.51994658  0.24961301  0.74576742     0.07900
N166        N  0.46070581  0.17302864  0.86025849    -0.36000
N167        N  0.41674283  0.17466828  0.86141713    -0.28100
C168        C  0.40416670  0.16543833  0.88406458    -0.03400
C169        C  0.44199614  0.15778248  0.89776707     0.05200
C170        C  0.47711680  0.16283691  0.88203395     0.03300
H171        H  0.37003461  0.16564601  0.89020511     0.08400
H172        H  0.51220593  0.16050128  0.88621106     0.07300
N173        N  0.16934125  0.42966405  0.17227467    -0.27100
N174        N  0.18719010  0.44891375  0.19106426    -0.35000
C175        C  0.19417315  0.41983072  0.20859808     0.01200
C176        C  0.17991859  0.38046507  0.20054702     0.07200
C177        C  0.16423688  0.38787731  0.17749554    -0.05900
H178        H  0.20890739  0.42680730  0.22588047     0.07900
H179        H  0.15115850  0.36442359  0.16517253     0.09100
Cu180      Cu  0.20113118  0.51388809  0.19260885     0.44200
Cu181      Cu  0.15477995  0.46010684  0.13975330     0.42000
Cu182      Cu  0.16726579  0.57403633  0.14001125     0.43900
N183        N  0.20384587  0.58024619  0.19044086    -0.34500
N184        N  0.18991632  0.60191152  0.17135803    -0.28800
C185        C  0.19149229  0.64400558  0.17605182    -0.04900
C186        C  0.20740763  0.64924224  0.19913496     0.07400
C187        C  0.21513163  0.60818349  0.20776896     0.01100
H188        H  0.18069028  0.66895130  0.16375234     0.08800
H189        H  0.22593882  0.59924189  0.22566844     0.07900
N190        N  0.14883664  0.54025401  0.10970569    -0.36000
N191        N  0.14487150  0.49817699  0.10933568    -0.28100
C192        C  0.13504516  0.48591426  0.08676150    -0.03400
C193        C  0.13254316  0.52213134  0.07228021     0.05200
C194        C  0.14138604  0.55594319  0.08751322     0.03300
H195        H  0.13063714  0.45303101  0.08129055     0.08400
H196        H  0.14345671  0.58945444  0.08272401     0.07300
N197        N  0.14015699  0.60751407  0.79618879    -0.27100
N198        N  0.15444543  0.58684428  0.77685831    -0.35000
C199        C  0.16259662  0.61546070  0.75930962     0.01200
C200        C  0.15264695  0.65601213  0.76789321     0.07200
C201        C  0.13840088  0.64977735  0.79129212    -0.05900
H202        H  0.17452661  0.60727908  0.74152694     0.07900
H203        H  0.12814534  0.67421716  0.80396444     0.09100
Cu204      Cu  0.16115189  0.52052223  0.77460746     0.44200
Cu205      Cu  0.12532079  0.57781366  0.82882865     0.42000
Cu206      Cu  0.12523532  0.46275201  0.82723967     0.43900
N207        N  0.16023859  0.45398657  0.77673996    -0.34500
N208        N  0.14538244  0.43323707  0.79580576    -0.28800
C209        C  0.14784279  0.39090669  0.79170951    -0.04900
C210        C  0.16548861  0.38457958  0.76906240     0.07400
C211        C  0.17298289  0.42520669  0.76001320     0.01100
H212        H  0.13800655  0.36653400  0.80443411     0.08800
H213        H  0.18618400  0.43326709  0.74250405     0.07900
N214        N  0.11591579  0.49751372  0.85843557    -0.36000
N215        N  0.11623763  0.53978905  0.85930289    -0.28100
C216        C  0.11295109  0.55210398  0.88245036    -0.03400
C217        C  0.11063583  0.51572494  0.89678223     0.05200
C218        C  0.11253312  0.48179469  0.88086502     0.03300
H219        H  0.11381108  0.58502210  0.88840924     0.08400
H220        H  0.11300609  0.44803299  0.88527559     0.07300
N221        N  0.03123843  0.31535310  0.30200860    -0.27100
N222        N  0.00921085  0.29373358  0.28555832    -0.35000
C223        C  0.03764697  0.27855892  0.26902866     0.01200
C224        C  0.07981699  0.29107355  0.27524580     0.07200
C225        C  0.07482690  0.31430101  0.29631316    -0.05900
H226        H  0.02808451  0.26030167  0.25338885     0.07900
H227        H  0.10071491  0.32974801  0.30650186     0.09100
Cu228      Cu  0.94154690  0.28729709  0.28459170     0.44200
Cu229      Cu  0.99933441  0.34531594  0.33077098     0.42000
Cu230      Cu  0.87682154  0.34408198  0.32736402     0.43900
N231        N  0.87350105  0.28953008  0.28327998    -0.34500
N232        N  0.84902340  0.31121152  0.29887225    -0.28800
C233        C  0.80597771  0.30773610  0.29273091    -0.04900
C234        C  0.80367376  0.28273736  0.27225146     0.07400
C235        C  0.84704593  0.27180720  0.26672765     0.01100
H236        H  0.77856451  0.32287123  0.30219346     0.08800
H237        H  0.85866674  0.25314083  0.25155836     0.07900
N238        N  0.91277461  0.36644522  0.35643959    -0.36000
N239        N  0.95671194  0.36665664  0.35787734    -0.28100
C240        C  0.96841752  0.37748160  0.38039128    -0.03400
C241        C  0.93006039  0.38407555  0.39378835     0.05200
C242        C  0.89552239  0.37709921  0.37792730     0.03300
H243        H  0.00232705  0.37756042  0.38687775     0.08400
H244        H  0.86038837  0.37673630  0.38209556     0.07300
N245        N  0.84373521  0.29543097  0.66259217    -0.27100
N246        N  0.86754398  0.28051400  0.68080899    -0.35000
C247        C  0.84037128  0.26570163  0.69793812     0.01200
C248        C  0.79720275  0.27175207  0.69024373     0.07200
C249        C  0.80033414  0.29067642  0.66775589    -0.05900
H250        H  0.85130889  0.25272084  0.71503457     0.07900
H251        H  0.77318970  0.30081803  0.65620751     0.09100
Cu252      Cu  0.93536688  0.28385332  0.68277543     0.44200
Cu253      Cu  0.87277103  0.32233504  0.63227411     0.42000
Cu254      Cu  0.99458130  0.33583931  0.63570524     0.43900
N255        N  0.00255662  0.29323433  0.68382008    -0.34500
N256        N  0.02520282  0.31270239  0.66674022    -0.28800
C257        C  0.06843261  0.31316324  0.67311558    -0.04900
C258        C  0.07258046  0.29302929  0.69526468     0.07400
C259        C  0.03023853  0.28089437  0.70146771     0.01100
H260        H  0.09477148  0.32675623  0.66239294     0.08800
H261        H  0.02019501  0.26406168  0.71756623     0.07900
N262        N  0.95557124  0.35071491  0.60585339    -0.36000
N263        N  0.91199044  0.34569699  0.60448660    -0.28100
C264        C  0.89840286  0.35547518  0.58204216    -0.03400
C265        C  0.93516526  0.36705116  0.56862441     0.05200
C266        C  0.97070929  0.36376328  0.58434848     0.03300
H267        H  0.86451579  0.35266200  0.57577431     0.08400
H268        H  0.00540399  0.36890158  0.58025327     0.07300
N269        N  0.22005664  0.10070222  0.29913370    -0.27100
N270        N  0.20529019  0.07998085  0.28007565    -0.35000
C271        C  0.19533219  0.10864905  0.26267380     0.01200
C272        C  0.20471792  0.14919847  0.27115817     0.07200
C273        C  0.22029228  0.14291817  0.29430331    -0.05900
H274        H  0.18323136  0.10048268  0.24496708     0.07900
H275        H  0.23120494  0.16724116  0.30672430     0.09100
Cu276      Cu  0.20283054  0.01340144  0.27813064     0.44200
Cu277      Cu  0.24022079  0.07106720  0.33082768     0.42000
Cu278      Cu  0.25089045  0.95673939  0.32957816     0.43900
N279        N  0.21120305  0.94711324  0.28007499    -0.34500
N280        N  0.22979377  0.92709016  0.29858449    -0.28800
C281        C  0.23279016  0.88500680  0.29385939    -0.04900
C282        C  0.21518156  0.87805035  0.27133029     0.07400
C283        C  0.20164335  0.91801511  0.26307358     0.01100
H284        H  0.24717287  0.86131090  0.30588466     0.08800
H285        H  0.18708685  0.92555182  0.24575641     0.07900
N286        N  0.26374139  0.99252683  0.35984489    -0.36000
N287        N  0.25894817  0.03460660  0.36047235    -0.28100
C288        C  0.26528211  0.04805780  0.38313551    -0.03400
C289        C  0.27448588  0.01265240  0.39745805     0.05200
C290        C  0.27346884  0.97801468  0.38203062     0.03300
H291        H  0.26175674  0.08100810  0.38883687     0.08400
H292        H  0.27714810  0.94453146  0.38676173     0.07300
N293        N  0.21224015  0.10627454  0.67202006    -0.27100
N294        N  0.19206607  0.08594220  0.68972913    -0.35000
C295        C  0.18255215  0.11417340  0.70731405     0.01200
C296        C  0.19775739  0.15394536  0.70027823     0.07200
C297        C  0.21633283  0.14774934  0.67784034    -0.05900
H298        H  0.16601194  0.10628458  0.72399373     0.07900
H299        H  0.23132243  0.17168568  0.66643364     0.09100
Cu300      Cu  0.18070686  0.02033024  0.68941701     0.44200
Cu301      Cu  0.23270251  0.07745626  0.64050201     0.42000
Cu302      Cu  0.22771865  0.96250808  0.63828749     0.43900
N303        N  0.18219885  0.95384435  0.68660849    -0.34500
N304        N  0.20072772  0.93292625  0.66844237    -0.28800
C305        C  0.19927013  0.89060606  0.67296867    -0.04900
C306        C  0.17866149  0.88453261  0.69494803     0.07400
C307        C  0.16819272  0.92530350  0.70306217     0.01100
H308        H  0.21282440  0.86607956  0.66126190     0.08800
H309        H  0.15293876  0.93369917  0.72005950     0.07900
N310        N  0.24683864  0.00014003  0.60923969    -0.36000
N311        N  0.24774071  0.04239901  0.61012154    -0.28100
C312        C  0.25647223  0.05787411  0.58809758    -0.03400
C313        C  0.26152013  0.02374188  0.57252476     0.05200
C314        C  0.25543358  0.98754896  0.58655716     0.03300
H315        H  0.25740545  0.09158481  0.58362254     0.08400
H316        H  0.25474281  0.95467315  0.58050536     0.07300
O317        O  0.15055514  0.29695949  0.70150689    -0.72800
O318        O  0.25904289  0.27189643  0.74125286    -0.73800
O319        O  0.21216606  0.22803971  0.70468423    -0.62400
O320        O  0.19644613  0.34129288  0.73795227    -0.70800
O321        O  0.15609410  0.30954035  0.76611300    -0.70300
O322        O  0.17138798  0.19655388  0.73276140    -0.61600
O323        O  0.21822547  0.24048890  0.76933911    -0.74100
O324        O  0.10970406  0.26557167  0.72960190    -0.72900
Cu325      Cu  0.20616203  0.28564251  0.72042789     1.04600
Cu326      Cu  0.16242337  0.25199443  0.75044882     1.04300
C327        C  0.11289762  0.28492744  0.70941100     0.93400
C328        C  0.25597368  0.25206882  0.76131290     0.92600
C329        C  0.19375207  0.19466981  0.71326743     0.84700
C330        C  0.17320491  0.34323562  0.75715587     0.91000
O331        O  0.16481425  0.30605334  0.20461558    -0.72800
O332        O  0.17803509  0.19250020  0.23874297    -0.73800
O333        O  0.11715684  0.26257561  0.24136813    -0.62400
O334        O  0.22548904  0.23586114  0.20211315    -0.70800
O335        O  0.26679752  0.26670071  0.23010505    -0.70300
O336        O  0.15808391  0.29374583  0.26941345    -0.61600
O337        O  0.21862409  0.22360244  0.26692971    -0.74100
O338        O  0.20580118  0.33671738  0.23278755    -0.72900
Cu339      Cu  0.16984004  0.24820986  0.22075272     1.04600
Cu340      Cu  0.21384789  0.28123320  0.25076653     1.04300
C341        C  0.18347436  0.33917600  0.21327625     0.93400
C342        C  0.20025739  0.19030887  0.25830733     0.92600
C343        C  0.12034478  0.28212271  0.26144052     0.84700
C344        C  0.26337011  0.24724030  0.21000546     0.91000
O345        O  0.76772094  0.25213725  0.23850764    -0.72800
O346        O  0.65906376  0.23081528  0.19833553    -0.73800
O347        O  0.72266583  0.29726321  0.20140216    -0.62400
O348        O  0.70469451  0.18498347  0.23529554    -0.70800
O349        O  0.66367023  0.21792821  0.26298202    -0.70300
O350        O  0.68195756  0.33112545  0.22888724    -0.61600
O351        O  0.61831159  0.26428815  0.22597990    -0.74100
O352        O  0.72601517  0.28536559  0.26585195    -0.72900
Cu353      Cu  0.71496640  0.24010877  0.21742815     1.04600
Cu354      Cu  0.67091289  0.27574266  0.24686051     1.04300
C355        C  0.76394853  0.27266765  0.25828444     0.93400
C356        C  0.62141751  0.24440442  0.20600958     0.92600
C357        C  0.70593327  0.33187146  0.20989161     0.84700
C358        C  0.68156692  0.18371185  0.25454153     0.91000
N359        N  0.73994530  0.41970810  0.17110473    -0.27100
N360        N  0.72260330  0.44175220  0.18915387    -0.35000
C361        C  0.70705309  0.41408763  0.20572639     0.01200
C362        C  0.71524954  0.37274005  0.19765716     0.07200
C363        C  0.73625216  0.37763503  0.17572063    -0.05900
H364        H  0.69155711  0.42336191  0.22251583     0.07900
H365        H  0.74780939  0.35241252  0.16386971     0.09100
Cu366      Cu  0.72265177  0.50854675  0.18991316     0.44200
Cu367      Cu  0.76553660  0.44766975  0.14028793     0.42000
Cu368      Cu  0.76742384  0.56324845  0.13660734     0.43900
N369        N  0.72984561  0.57472653  0.18692028    -0.34500
N370        N  0.74705250  0.59462223  0.16809603    -0.28800
C371        C  0.74748800  0.63707488  0.17260184    -0.04900
C372        C  0.72933984  0.64418337  0.19519149     0.07400
C373        C  0.71860987  0.60394691  0.20367824     0.01100
H374        H  0.75966401  0.66102606  0.16024270     0.08800
H375        H  0.70398415  0.59637016  0.22092139     0.07900
N376        N  0.78027728  0.52302628  0.10723718    -0.36000
N377        N  0.77986337  0.48078699  0.10890472    -0.28100
C378        C  0.78546195  0.46378419  0.08689671    -0.03400
C379        C  0.78954362  0.49672782  0.07037758     0.05200
C380        C  0.78626351  0.53392952  0.08397697     0.03300
H381        H  0.78460383  0.42985098  0.08309076     0.08400
H382        H  0.78618150  0.56651816  0.07735179     0.07300
N383        N  0.70878849  0.58258256  0.79644216    -0.27100
N384        N  0.69028127  0.56171843  0.77844338    -0.35000
C385        C  0.67548264  0.59027268  0.76197685     0.01200
C386        C  0.68532745  0.63106249  0.76993605     0.07200
C387        C  0.70652486  0.62491527  0.79182081    -0.05900
H388        H  0.65950584  0.58190053  0.74523179     0.07900
H389        H  0.71938425  0.64943269  0.80354106     0.09100
Cu390      Cu  0.68851659  0.49510601  0.77674466     0.44200
Cu391      Cu  0.73515706  0.55223987  0.82677690     0.42000
Cu392      Cu  0.73474610  0.43601936  0.82807935     0.43900
N393        N  0.69712672  0.42877372  0.77753293    -0.34500
N394        N  0.71490465  0.40733132  0.79580376    -0.28800
C395        C  0.71749167  0.36548437  0.78993713    -0.04900
C396        C  0.70035529  0.36032567  0.76698144     0.07400
C397        C  0.68766789  0.40112971  0.75974132     0.01100
H398        H  0.73060863  0.34057110  0.80159615     0.08800
H399        H  0.67303306  0.41017672  0.74266504     0.07900
N400        N  0.75180467  0.47366400  0.85778587    -0.36000
N401        N  0.75275582  0.51598143  0.85689837    -0.28100
C402        C  0.76340940  0.53108852  0.87875939    -0.03400
C403        C  0.76926425  0.49686194  0.89438735     0.05200
C404        C  0.76167786  0.46085421  0.88040314     0.03300
H405        H  0.76523416  0.56475080  0.88313800     0.08400
H406        H  0.76225704  0.42783692  0.88632577     0.07300
N407        N  0.67573187  0.91871510  0.29721073    -0.27100
N408        N  0.69034571  0.94031911  0.27834676    -0.35000
C409        C  0.70326538  0.91235145  0.26121458     0.01200
C410        C  0.69612168  0.87120238  0.26955237     0.07200
C411        C  0.67857949  0.87648294  0.29241106    -0.05900
H412        H  0.71563969  0.92137017  0.24367498     0.07900
H413        H  0.66821028  0.85144777  0.30458668     0.09100
Cu414      Cu  0.68892299  0.00703351  0.27577901     0.44200
Cu415      Cu  0.65182671  0.94752787  0.32865047     0.42000
Cu416      Cu  0.63990459  0.06311862  0.32610884     0.43900
N417        N  0.67883134  0.07330511  0.27645070    -0.34500
N418        N  0.65980519  0.09360429  0.29466998    -0.28800
C419        C  0.65733036  0.13576758  0.28958058    -0.04900
C420        C  0.67589060  0.14245130  0.26713178     0.07400
C421        C  0.68921807  0.10213582  0.25934667     0.01100
H422        H  0.64368320  0.15986541  0.30153024     0.08800
H423        H  0.70530929  0.09432792  0.24248539     0.07900
N424        N  0.62645166  0.02700741  0.35668386    -0.36000
N425        N  0.63081008  0.98484914  0.35778616    -0.28100
C426        C  0.62147469  0.97186170  0.38035221    -0.03400
C427        C  0.61083249  0.00758762  0.39413392     0.05200
C428        C  0.61434731  0.04189041  0.37844408     0.03300
H429        H  0.62346890  0.93894713  0.38638860     0.08400
H430        H  0.60951415  0.07543045  0.38265330     0.07300
N431        N  0.64455255  0.08448582  0.66737189    -0.27100
N432        N  0.66067906  0.06313257  0.68610015    -0.35000
C433        C  0.67450383  0.09146827  0.70267855     0.01200
C434        C  0.66635318  0.13254649  0.69406856     0.07200
C435        C  0.64728518  0.12680897  0.67166680    -0.05900
H436        H  0.68836609  0.08280792  0.72000060     0.07900
H437        H  0.63602414  0.15161173  0.65939549     0.09100
Cu438      Cu  0.66009243  0.99624125  0.68892415     0.44200
Cu439      Cu  0.61994207  0.05536887  0.63650203     0.42000
Cu440      Cu  0.61134181  0.93989040  0.63857883     0.43900
N441        N  0.64969602  0.93005501  0.68861034    -0.34500
N442        N  0.63069621  0.90978845  0.67052168    -0.28800
C443        C  0.62802249  0.86782522  0.67601584    -0.04900
C444        C  0.64643808  0.86119117  0.69857569     0.07400
C445        C  0.65984861  0.90137247  0.70599493     0.01100
H446        H  0.61441577  0.84376951  0.66424518     0.08800
H447        H  0.67591643  0.90918182  0.72280264     0.07900
N448        N  0.59960123  0.97627954  0.60764576    -0.36000
N449        N  0.60245131  0.01848279  0.60686327    -0.28100
C450        C  0.59628529  0.03177577  0.58400732    -0.03400
C451        C  0.58946099  0.99621144  0.56963234     0.05200
C452        C  0.59169329  0.96166468  0.58531839     0.03300
H453        H  0.59873761  0.06471549  0.57815900     0.08400
H454        H  0.58953500  0.92812787  0.58070078     0.07300
O455        O  0.76024832  0.24187424  0.72384090    -0.72800
O456        O  0.65140160  0.21858498  0.76300904    -0.73800
O457        O  0.69715951  0.17418195  0.72581487    -0.62400
O458        O  0.71382676  0.28551978  0.76138032    -0.70800
O459        O  0.67337251  0.31963293  0.73379886    -0.70300
O460        O  0.65680788  0.20819352  0.69814963    -0.61600
O461        O  0.61071215  0.25235732  0.73532597    -0.74100
O462        O  0.71925451  0.27556534  0.69626870    -0.72900
Cu463      Cu  0.70722631  0.22883348  0.74441118     1.04600
Cu464      Cu  0.66362759  0.26511127  0.71492170     1.04300
C465        C  0.75697483  0.26247733  0.70401454     0.93400
C466        C  0.61382153  0.23210311  0.75523877     0.92600
C467        C  0.67396595  0.17355990  0.70654483     0.84700
C468        C  0.69576357  0.31999123  0.75337056     0.91000
O469        O  0.68560468  0.79631445  0.26442729    -0.72800
O470        O  0.70010175  0.68634277  0.22728842    -0.73800
O471        O  0.74703683  0.72675312  0.26484421    -0.62400
O472        O  0.63804200  0.75653194  0.22691922    -0.70800
O473        O  0.67861865  0.78917509  0.19916788    -0.70300
O474        O  0.78785493  0.76011080  0.23746721    -0.61600
O475        O  0.74075490  0.71940072  0.19978739    -0.74100
O476        O  0.72538453  0.83009392  0.23682352    -0.72900
Cu477      Cu  0.69122982  0.74028162  0.24675116     1.04600
Cu478      Cu  0.73467272  0.77587317  0.21736053     1.04300
C479        C  0.70287936  0.83063913  0.25635823     0.93400
C480        C  0.72302736  0.68530154  0.20792253     0.92600
C481        C  0.78472784  0.73879408  0.25703109     0.84700
C482        C  0.64090975  0.77788968  0.20737312     0.91000
O483        O  0.69809603  0.71739416  0.70098626    -0.72800
O484        O  0.58917194  0.74177810  0.74028856    -0.73800
O485        O  0.63489312  0.78593880  0.70310949    -0.62400
O486        O  0.65326365  0.67332755  0.73829617    -0.70800
O487        O  0.69374699  0.70641440  0.76577081    -0.70300
O488        O  0.67475302  0.81864411  0.73098499    -0.61600
O489        O  0.62975481  0.77387389  0.76815022    -0.74100
O490        O  0.73848047  0.75049092  0.72855293    -0.72900
Cu491      Cu  0.64231101  0.72845661  0.71974250     1.04600
Cu492      Cu  0.68558948  0.76350655  0.74930533     1.04300
C493        C  0.73560242  0.73000633  0.70875998     0.93400
C494        C  0.59215855  0.76170482  0.76023983     0.92600
C495        C  0.65215612  0.82002055  0.71151612     0.84700
C496        C  0.67688126  0.67216715  0.75744083     0.91000
C497        C  0.58999154  0.02907369  0.46156507     0.16100
C498        C  0.58594362  0.04715351  0.48458686    -0.32900
C499        C  0.58508851  0.01915833  0.50440660     0.20500
C500        C  0.58706617  0.97513566  0.50136115     0.02700
C501        C  0.59052629  0.95708126  0.47834614    -0.22700
C502        C  0.59246736  0.98505477  0.45859116     0.11900
S503        S  0.59484863  0.05745769  0.43539227    -0.06300
C504        C  0.60117420  0.00954880  0.42026109    -0.09800
C505        C  0.59871759  0.97365365  0.43496937    -0.26400
S506        S  0.58756125  0.94665868  0.52761561    -0.03600
C507        C  0.58603003  0.99449117  0.54305233    -0.17000
C508        C  0.58433413  0.03048727  0.52829445    -0.15000
H509        H  0.58488310  0.08154455  0.48698886     0.20300
H510        H  0.59297169  0.92272630  0.47599677     0.16400
H511        H  0.60241769  0.94092885  0.42885311     0.18900
H512        H  0.58381233  0.06322297  0.53464235     0.12200
C513        C  0.78910630  0.52085445  0.96159435     0.16100
C514        C  0.79378505  0.54028751  0.98417529    -0.32900
C515        C  0.79326487  0.51381979  0.00461126     0.20500
C516        C  0.78910656  0.46982314  0.00262084     0.02700
C517        C  0.78496274  0.45030109  0.97999511    -0.22700
C518        C  0.78468515  0.47688911  0.95955645     0.11900
S519        S  0.78606366  0.54776155  0.93486629    -0.06300
C520        C  0.77815724  0.49942199  0.92061161    -0.09800
C521        C  0.77862090  0.46434152  0.93606977    -0.26400
S522        S  0.78747555  0.44359082  0.02961603    -0.03600
C523        C  0.79176095  0.49246779  0.04383743    -0.17000
C524        C  0.79494404  0.52699048  0.02816819    -0.15000
H525        H  0.79655843  0.57469607  0.98577783     0.20300
H526        H  0.78101329  0.41600917  0.97843534     0.16400
H527        H  0.77360461  0.43154491  0.93055613     0.18900
H528        H  0.79734655  0.56010360  0.03366110     0.12200
C529        C  0.28406290  0.99287491  0.46546934     0.16100
C530        C  0.28727385  0.97534702  0.48865302    -0.32900
C531        C  0.27809643  0.00251756  0.50813821     0.20500
C532        C  0.26682632  0.04530330  0.50469760     0.02700
C533        C  0.26381080  0.06282201  0.48156664    -0.22700
C534        C  0.27253322  0.03560544  0.46211489     0.11900
S535        S  0.29162154  0.96495664  0.43939671    -0.06300
C536        C  0.27870119  0.01133814  0.42385102    -0.09800
C537        C  0.26967504  0.04643843  0.43832041    -0.26400
S538        S  0.25631055  0.07286548  0.53052201    -0.03600
C539        C  0.26661390  0.02614975  0.54621916    -0.17000
C540        C  0.27793118  0.99127708  0.53198269    -0.15000
H541        H  0.29578423  0.94188301  0.49136508     0.20300
H542        H  0.25443794  0.09608144  0.47883419     0.16400
H543        H  0.26016068  0.07797082  0.43185949     0.18900
H544        H  0.28528822  0.95937882  0.53867321     0.12200
C545        C  0.90409831  0.38897681  0.46136490     0.16100
C546        C  0.88444729  0.38591722  0.48416679    -0.32900
C547        C  0.91282718  0.38413233  0.50418692     0.20500
C548        C  0.95861755  0.38621854  0.50162653     0.02700
C549        C  0.97819406  0.38976915  0.47887639    -0.22700
C550        C  0.94991493  0.39067573  0.45885631     0.11900
S551        S  0.87582644  0.38813972  0.43476823    -0.06300
C552        C  0.92634559  0.38921586  0.42008865    -0.09800
C553        C  0.96287343  0.39108420  0.43524599    -0.26400
S554        S  0.98745077  0.38175363  0.52791452    -0.03600
C555        C  0.93739459  0.37623952  0.54261008    -0.17000
C556        C  0.90039065  0.37851824  0.52770862    -0.15000
H557        H  0.84872808  0.38371848  0.48616270     0.20300
H558        H  0.01398864  0.39051027  0.47682894     0.16400
H559        H  0.99720204  0.39110389  0.42939783     0.18900
H560        H  0.86631541  0.37518455  0.53362397     0.12200
C561        C  0.11359173  0.49218364  0.96476414     0.16100
C562        C  0.11734229  0.47348929  0.98764978    -0.32900
C563        C  0.11823612  0.50094096  0.00757523     0.20500
C564        C  0.11509781  0.54501736  0.00484812     0.02700
C565        C  0.11085395  0.56368301  0.98198018    -0.22700
C566        C  0.11046619  0.53626029  0.96203822     0.11900
S567        S  0.11389843  0.46456660  0.93831955    -0.06300
C568        C  0.11013947  0.51292145  0.92332733    -0.09800
C569        C  0.10836810  0.54836340  0.93831418    -0.26400
S570        S  0.11867034  0.57283000  0.03114659    -0.03600
C571        C  0.12472358  0.52459687  0.04605772    -0.17000
C572        C  0.12348553  0.48900235  0.03118934    -0.15000
H573        H  0.12027476  0.43909401  0.98979874     0.20300
H574        H  0.10884142  0.59812115  0.97979709     0.16400
H575        H  0.10634367  0.58128178  0.93222922     0.18900
H576        H  0.12734009  0.45617354  0.03720807     0.12200
C577        C  0.46672054  0.14059107  0.96494183     0.16100
C578        C  0.48628759  0.13766883  0.98777883    -0.32900
C579        C  0.45784300  0.13669972  0.00775524     0.20500
C580        C  0.41199388  0.13766395  0.00508844     0.02700
C581        C  0.39244710  0.13997845  0.98224768    -0.22700
C582        C  0.42086842  0.14186714  0.96230838     0.11900
S583        S  0.49535434  0.14522913  0.93860286    -0.06300
C584        C  0.44500559  0.14955554  0.92386855    -0.09800
C585        C  0.40819197  0.14684927  0.93878450    -0.26400
S586        S  0.38327146  0.13873236  0.03151748    -0.03600
C587        C  0.43353827  0.13880044  0.04641759    -0.17000
C588        C  0.47043692  0.13706263  0.03144502    -0.15000
H589        H  0.52208320  0.13752588  0.98991760     0.20300
H590        H  0.35666196  0.14160995  0.98015343     0.16400
H591        H  0.37396562  0.14944489  0.93287497     0.18900
H592        H  0.50464989  0.13769946  0.03746639     0.12200
C593        C  0.97311818  0.64622501  0.46678005     0.16100
C594        C  0.98811651  0.64500693  0.49061368    -0.32900
C595        C  0.95616090  0.64021251  0.50874865     0.20500
C596        C  0.91135661  0.63628131  0.50344799     0.02700
C597        C  0.89642323  0.63704283  0.47959878    -0.22700
C598        C  0.92829466  0.64240394  0.46147739     0.11900
S599        S  0.00623279  0.65384339  0.44225781    -0.06300
C600        C  0.95909477  0.65225650  0.42466112    -0.09800
C601        C  0.92005335  0.64575629  0.43734614    -0.26400
S602        S  0.87770663  0.63298576  0.52809220    -0.03600
C603        C  0.92446021  0.63753779  0.54576758    -0.17000
C604        C  0.96392160  0.64062300  0.53297538    -0.15000
H605        H  0.02300924  0.64859689  0.49486782     0.20300
H606        H  0.86139711  0.63457948  0.47538020     0.16400
H607        H  0.88723124  0.64417259  0.42943986     0.18900
H608        H  0.99650233  0.64448684  0.54087753     0.12200
C609        C  0.46880386  0.87414443  0.00271294     0.16100
C610        C  0.48383630  0.87097485  0.97896179    -0.32900
C611        C  0.45197147  0.87368032  0.96061798     0.20500
C612        C  0.40720489  0.88005592  0.96559711     0.02700
C613        C  0.39223491  0.88392266  0.98937293    -0.22700
C614        C  0.42403196  0.88037487  0.00776451     0.11900
S615        S  0.50180412  0.86850409  0.02747994    -0.06300
C616        C  0.45473789  0.87399191  0.04492479    -0.09800
C617        C  0.41575909  0.88051319  0.03198807    -0.26400
S618        S  0.37366796  0.87984953  0.94079865    -0.03600
C619        C  0.42043508  0.87039971  0.92358597    -0.17000
C620        C  0.45980035  0.86846098  0.93657723    -0.15000
H621        H  0.51866755  0.86530871  0.97497996     0.20300
H622        H  0.35721860  0.88813948  0.99338658     0.16400
H623        H  0.38294930  0.88401623  0.03979627     0.18900
H624        H  0.49237175  0.86206661  0.92902305     0.12200
loop_ 
_geom_bond_atom_site_label_1 
_geom_bond_atom_site_label_2 
_geom_bond_distance 
_geom_bond_site_symmetry_2 
_ccdc_geom_bond_type 
O1           Cu9   2.010       .  S
O1           C11   1.278       .  A
O2           Cu9   2.019       .  S
O2           C12   1.278       .  A
O3           Cu9   2.001       .  S
O3           C13   1.278       .  A
O4           Cu9   1.997       .  S
O4           C14   1.275       .  A
O5          Cu10   2.000       .  S
O5           C14   1.278       .  A
O6          Cu10   1.997       .  S
O6           C13   1.275       .  A
O7          Cu10   2.001       .  S
O7           C12   1.277       .  A
O8          Cu10   2.005       .  S
O8           C11   1.276       .  A
Cu9         Cu10   2.378       .  S
C11         C282   1.467       .  S
C12         C186   1.469       .  S
C13          C28   1.461       .  S
C14          C66   1.460       .  S
N15          N16   1.321       .  A
N15          C19   1.347       .  A
N15         Cu23   2.077       .  S
N16          C17   1.340       .  A
N16         Cu22   2.049       .  S
C17          C18   1.378       .  A
C17          H20   1.082       .  S
C18         C482   1.463       .  S
C18          C19   1.385       .  A
C19          H21   1.082       .  S
Cu22         N25   2.048       .  S
Cu23         N33   2.078       .  S
Cu24         N26   2.072       .  S
Cu24         N32   2.074       .  S
N25          N26   1.321       .  A
N25          C29   1.340       .  A
N26          C27   1.346       .  A
C27          C28   1.384       .  A
C27          H30   1.082       .  S
C28          C29   1.377       .  A
C29          H31   1.082       .  S
N32          N33   1.324       .  A
N32          C36   1.345       .  A
N33          C34   1.344       .  A
C34          C35   1.384       .  A
C34          H37   1.082       .  S
C35         C616   1.474       .  S
C35          C36   1.384       .  A
C36          H38   1.081       .  S
N39          N40   1.322       .  A
N39          C43   1.349       .  A
N39         Cu47   2.087       .  S
N40          C41   1.339       .  A
N40         Cu46   2.048       .  S
C41          C42   1.376       .  A
C41          H44   1.082       .  S
C42         C124   1.465       .  S
C42          C43   1.387       .  A
C43          H45   1.082       .  S
Cu46         N49   2.048       .  S
Cu47         N57   2.088       .  S
Cu48         N50   2.069       .  S
Cu48         N56   2.070       .  S
N49          N50   1.319       .  A
N49          C53   1.341       .  A
N50          C51   1.345       .  A
C51          C52   1.384       .  A
C51          H54   1.082       .  S
C52         C494   1.463       .  S
C52          C53   1.379       .  A
C53          H55   1.082       .  S
N56          N57   1.324       .  A
N56          C60   1.342       .  A
N57          C58   1.347       .  A
C58          C59   1.386       .  A
C58          H61   1.082       .  S
C59         C619   1.476       .  S
C59          C60   1.382       .  A
C60          H62   1.081       .  S
N63          N64   1.321       .  A
N63          C67   1.347       .  A
N63         Cu71   2.075       .  S
N64          C65   1.338       .  A
N64         Cu70   2.041   1_455  S
C65          C66   1.375       .  A
C65          H68   1.082       .  S
C66          C67   1.385       .  A
C67          H69   1.082       .  S
Cu70         N73   2.041       .  S
Cu71         N81   2.077   1_455  S
Cu72         N74   2.076       .  S
Cu72         N80   2.078       .  S
N73          N74   1.320       .  A
N73          C77   1.340       .  A
N74          C75   1.346       .  A
C75          C76   1.386       .  A
C75          H78   1.082       .  S
C76         C481   1.462       .  S
C76          C77   1.377       .  A
C77          H79   1.082       .  S
N80          N81   1.324       .  A
N80          C84   1.344       .  A
N81          C82   1.345       .  A
C82          C83   1.383       .  A
C82          H85   1.082   1_655  S
C83         C600   1.474       .  S
C83          C84   1.384       .  A
C84          H86   1.081       .  S
N87          N88   1.322       .  A
N87          C91   1.348       .  A
N87         Cu95   2.084       .  S
N88          C89   1.339       .  A
N88         Cu94   2.050       .  S
C89          C90   1.376       .  A
C89          H92   1.082       .  S
C90         C493   1.464       .  S
C90          C91   1.386       .  A
C91          H93   1.082       .  S
Cu94         N97   2.050       .  S
Cu95        N105   2.085       .  S
Cu96         N98   2.068   1_655  S
Cu96        N104   2.068       .  S
N97          N98   1.319   1_655  A
N97         C101   1.341   1_655  A
N98          C99   1.346       .  A
C99         C100   1.385       .  A
C99         H102   1.082       .  S
C100        C123   1.464       .  S
C100        C101   1.380       .  A
C101        H103   1.082   1_455  S
N104        N105   1.324       .  A
N104        C108   1.342       .  A
N105        C106   1.347       .  A
C106        C107   1.386       .  A
C106        H109   1.082       .  S
C107        C603   1.475       .  S
C107        C108   1.382       .  A
C108        H110   1.081       .  S
O111       Cu119   2.011       .  S
O111        C121   1.277       .  A
O112       Cu119   2.014       .  S
O112        C122   1.278       .  A
O113       Cu119   2.001       .  S
O113        C123   1.276       .  A
O114       Cu119   2.005       .  S
O114        C124   1.278       .  A
O115       Cu120   2.004       .  S
O115        C124   1.275       .  A
O116       Cu120   2.006       .  S
O116        C123   1.278       .  A
O117       Cu120   2.019       .  S
O117        C122   1.279       .  A
O118       Cu120   2.024       .  S
O118        C121   1.279       .  A
Cu119      Cu120   2.376       .  S
C121        C306   1.474       .  S
C122        C200   1.474       .  S
N125        N126   1.322       .  A
N125        C129   1.347       .  A
N125       Cu133   2.077       .  S
N126        C127   1.341       .  A
N126       Cu132   2.058       .  S
C127        C128   1.379       .  A
C127        H130   1.082       .  S
C128        C356   1.466       .  S
C128        C129   1.385       .  A
C129        H131   1.082       .  S
Cu132       N135   2.058       .  S
Cu133       N143   2.078       .  S
Cu134       N136   2.078       .  S
Cu134       N142   2.078       .  S
N135        N136   1.321       .  A
N135        C139   1.342       .  A
N136        C137   1.347       .  A
C137        C138   1.385       .  A
C137        H140   1.082       .  S
C138        C344   1.467       .  S
C138        C139   1.380       .  A
C139        H141   1.082       .  S
N142        N143   1.323       .  A
N142        C146   1.344       .  A
N143        C144   1.345       .  A
C144        C145   1.385       .  A
C144        H147   1.082       .  S
C145        C587   1.476       .  S
C145        C146   1.384       .  A
C146        H148   1.082       .  S
N149        N150   1.322       .  A
N149        C153   1.349       .  A
N149       Cu157   2.088       .  S
N150        C151   1.340       .  A
N150       Cu156   2.051       .  S
C151        C152   1.377       .  A
C151        H154   1.082       .  S
C152        C328   1.467       .  S
C152        C153   1.387       .  A
C153        H155   1.082       .  S
Cu156       N159   2.050       .  S
Cu157       N167   2.089       .  S
Cu158       N160   2.069       .  S
Cu158       N166   2.071       .  S
N159        N160   1.320       .  A
N159        C163   1.340       .  A
N160        C161   1.345       .  A
C161        C162   1.384       .  A
C161        H164   1.082       .  S
C162        C466   1.461       .  S
C162        C163   1.378       .  A
C163        H165   1.082       .  S
N166        N167   1.324       .  A
N166        C170   1.344       .  A
N167        C168   1.347       .  A
C168        C169   1.387       .  A
C168        H171   1.082       .  S
C169        C584   1.476       .  S
C169        C170   1.382       .  A
C170        H172   1.082       .  S
N173        N174   1.324       .  A
N173        C177   1.347       .  A
N173       Cu181   2.085       .  S
N174        C175   1.345       .  A
N174       Cu180   2.079       .  S
C175        C176   1.383       .  A
C175        H178   1.082       .  S
C176        C341   1.472       .  S
C176        C177   1.384       .  A
C177        H179   1.082       .  S
Cu180       N183   2.078       .  S
Cu181       N191   2.084       .  S
Cu182       N184   2.070       .  S
Cu182       N190   2.070       .  S
N183        N184   1.322       .  A
N183        C187   1.348       .  A
N184        C185   1.342       .  A
C185        C186   1.381       .  A
C185        H188   1.082       .  S
C186        C187   1.385       .  A
C187        H189   1.082       .  S
N190        N191   1.321       .  A
N190        C194   1.344       .  A
N191        C192   1.347       .  A
C192        C193   1.388       .  A
C192        H195   1.082       .  S
C193        C571   1.479       .  S
C193        C194   1.384       .  A
C194        H196   1.082       .  S
N197        N198   1.324       .  A
N197        C201   1.347       .  A
N197       Cu205   2.087       .  S
N198        C199   1.346       .  A
N198       Cu204   2.082       .  S
C199        C200   1.384       .  A
C199        H202   1.082       .  S
C200        C201   1.384       .  A
C201        H203   1.082       .  S
Cu204       N207   2.082       .  S
Cu205       N215   2.087       .  S
Cu206       N208   2.066       .  S
Cu206       N214   2.066       .  S
N207        N208   1.322       .  A
N207        C211   1.347       .  A
N208        C209   1.343       .  A
C209        C210   1.380       .  A
C209        H212   1.082       .  S
C210        C330   1.468       .  S
C210        C211   1.385       .  A
C211        H213   1.082       .  S
N214        N215   1.321       .  A
N214        C218   1.344       .  A
N215        C216   1.348       .  A
C216        C217   1.389       .  A
C216        H219   1.082       .  S
C217        C568   1.479       .  S
C217        C218   1.383       .  A
C218        H220   1.082       .  S
N221        N222   1.322       .  A
N221        C225   1.348       .  A
N221       Cu229   2.083   1_455  S
N222        C223   1.339       .  A
N222       Cu228   2.048   1_455  S
C223        C224   1.376       .  A
C223        H226   1.082       .  S
C224        C343   1.465       .  S
C224        C225   1.387       .  A
C225        H227   1.082       .  S
Cu228       N231   2.048       .  S
Cu229       N239   2.084       .  S
Cu230       N232   2.072       .  S
Cu230       N238   2.073       .  S
N231        N232   1.320       .  A
N231        C235   1.342       .  A
N232        C233   1.344       .  A
C233        C234   1.385       .  A
C233        H236   1.082       .  S
C234        C355   1.463       .  S
C234        C235   1.379       .  A
C235        H237   1.082       .  S
N238        N239   1.324       .  A
N238        C242   1.344       .  A
N239        C240   1.346       .  A
C240        C241   1.386       .  A
C240        H243   1.082   1_655  S
C241        C552   1.476       .  S
C241        C242   1.382       .  A
C242        H244   1.082       .  S
N245        N246   1.321       .  A
N245        C249   1.346       .  A
N245       Cu253   2.079       .  S
N246        C247   1.341       .  A
N246       Cu252   2.046       .  S
C247        C248   1.377       .  A
C247        H250   1.082       .  S
C248        C465   1.464       .  S
C248        C249   1.386       .  A
C249        H251   1.082       .  S
Cu252       N255   2.046   1_655  S
Cu253       N263   2.081       .  S
Cu254       N256   2.080   1_655  S
Cu254       N262   2.081       .  S
N255        N256   1.321       .  A
N255        C259   1.339       .  A
N256        C257   1.348       .  A
C257        C258   1.386       .  A
C257        H260   1.082       .  S
C258        C327   1.464       .  S
C258        C259   1.377       .  A
C259        H261   1.082       .  S
N262        N263   1.324       .  A
N262        C266   1.344       .  A
N263        C264   1.347       .  A
C264        C265   1.385       .  A
C264        H267   1.082       .  S
C265        C555   1.476       .  S
C265        C266   1.383       .  A
C266        H268   1.082   1_655  S
N269        N270   1.323       .  A
N269        C273   1.345       .  A
N269       Cu277   2.076       .  S
N270        C271   1.348       .  A
N270       Cu276   2.085       .  S
C271        C272   1.385       .  A
C271        H274   1.082       .  S
C272        C342   1.472       .  S
C272        C273   1.382       .  A
C273        H275   1.082       .  S
Cu276       N279   2.085   1_545  S
Cu277       N287   2.075       .  S
Cu278       N280   2.063       .  S
Cu278       N286   2.062       .  S
N279        N280   1.323       .  A
N279        C283   1.347       .  A
N280        C281   1.343       .  A
C281        C282   1.379       .  A
C281        H284   1.082       .  S
C282        C283   1.385       .  A
C283        H285   1.082       .  S
N286        N287   1.321   1_565  A
N286        C290   1.344       .  A
N287        C288   1.344       .  A
C288        C289   1.386       .  A
C288        H291   1.081       .  S
C289        C536   1.474       .  S
C289        C290   1.383   1_545  A
C290        H292   1.082       .  S
N293        N294   1.322       .  A
N293        C297   1.343       .  A
N293       Cu301   2.063       .  S
N294        C295   1.347       .  A
N294       Cu300   2.082       .  S
C295        C296   1.385       .  A
C295        H298   1.082       .  S
C296        C329   1.468       .  S
C296        C297   1.380       .  A
C297        H299   1.082       .  S
Cu300       N303   2.082   1_545  S
Cu301       N311   2.063       .  S
Cu302       N304   2.083       .  S
Cu302       N310   2.081   1_565  S
N303        N304   1.324       .  A
N303        C307   1.347       .  A
N304        C305   1.346       .  A
C305        C306   1.384       .  A
C305        H308   1.082       .  S
C306        C307   1.384       .  A
C307        H309   1.082       .  S
N310        N311   1.321       .  A
N310        C314   1.346   1_545  A
N311        C312   1.343       .  A
C312        C313   1.382       .  A
C312        H315   1.082       .  S
C313        C539   1.473       .  S
C313        C314   1.386   1_545  A
C314        H316   1.082       .  S
O317       Cu325   2.002       .  S
O317        C327   1.276       .  A
O318       Cu325   2.008       .  S
O318        C328   1.279       .  A
O319       Cu325   2.009       .  S
O319        C329   1.278       .  A
O320       Cu325   2.013       .  S
O320        C330   1.278       .  A
O321       Cu326   2.006       .  S
O321        C330   1.277       .  A
O322       Cu326   2.009       .  S
O322        C329   1.277       .  A
O323       Cu326   2.007       .  S
O323        C328   1.276       .  A
O324       Cu326   2.004       .  S
O324        C327   1.278       .  A
Cu325      Cu326   2.377       .  S
O331       Cu339   2.019       .  S
O331        C341   1.279       .  A
O332       Cu339   2.017       .  S
O332        C342   1.278       .  A
O333       Cu339   2.002       .  S
O333        C343   1.278       .  A
O334       Cu339   2.002       .  S
O334        C344   1.276       .  A
O335       Cu340   2.011       .  S
O335        C344   1.279       .  A
O336       Cu340   2.006       .  S
O336        C343   1.276       .  A
O337       Cu340   2.013       .  S
O337        C342   1.278       .  A
O338       Cu340   2.010       .  S
O338        C341   1.278       .  A
Cu339      Cu340   2.376       .  S
O345       Cu353   2.012       .  S
O345        C355   1.279       .  A
O346       Cu353   2.013       .  S
O346        C356   1.277       .  A
O347       Cu353   2.009       .  S
O347        C357   1.278       .  A
O348       Cu353   2.013       .  S
O348        C358   1.277       .  A
O349       Cu354   2.028       .  S
O349        C358   1.280       .  A
O350       Cu354   2.027       .  S
O350        C357   1.279       .  A
O351       Cu354   1.999       .  S
O351        C356   1.277       .  A
O352       Cu354   1.991       .  S
O352        C355   1.274       .  A
Cu353      Cu354   2.375       .  S
C357        C362   1.475       .  S
C358        C420   1.477       .  S
N359        N360   1.322       .  A
N359        C363   1.344       .  A
N359       Cu367   2.074       .  S
N360        C361   1.350       .  A
N360       Cu366   2.087       .  S
C361        C362   1.387       .  A
C361        H364   1.082       .  S
C362        C363   1.383       .  A
C363        H365   1.082       .  S
Cu366       N369   2.087       .  S
Cu367       N377   2.075       .  S
Cu368       N370   2.096       .  S
Cu368       N376   2.096       .  S
N369        N370   1.325       .  A
N369        C373   1.346       .  A
N370        C371   1.350       .  A
C371        C372   1.387       .  A
C371        H374   1.082       .  S
C372        C480   1.478       .  S
C372        C373   1.383       .  A
C373        H375   1.082       .  S
N376        N377   1.322       .  A
N376        C380   1.350       .  A
N377        C378   1.345       .  A
C378        C379   1.384       .  A
C378        H381   1.082       .  S
C379        C523   1.484       .  S
C379        C380   1.390       .  A
C380        H382   1.081       .  S
N383        N384   1.323       .  A
N383        C387   1.347       .  A
N383       Cu391   2.084       .  S
N384        C385   1.348       .  A
N384       Cu390   2.084       .  S
C385        C386   1.385       .  A
C385        H388   1.082       .  S
C386        C496   1.477       .  S
C386        C387   1.386       .  A
C387        H389   1.082       .  S
Cu390       N393   2.085       .  S
Cu391       N401   2.084       .  S
Cu392       N394   2.098       .  S
Cu392       N400   2.098       .  S
N393        N394   1.324       .  A
N393        C397   1.348       .  A
N394        C395   1.349       .  A
C395        C396   1.387       .  A
C395        H398   1.082       .  S
C396        C468   1.479       .  S
C396        C397   1.384       .  A
C397        H399   1.082       .  S
N400        N401   1.323       .  A
N400        C404   1.351       .  A
N401        C402   1.346       .  A
C402        C403   1.385       .  A
C402        H405   1.082       .  S
C403        C520   1.485       .  S
C403        C404   1.390       .  A
C404        H406   1.082       .  S
N407        N408   1.324       .  A
N407        C411   1.348       .  A
N407       Cu415   2.092       .  S
N408        C409   1.348       .  A
N408       Cu414   2.088   1_565  S
C409        C410   1.385       .  A
C409        H412   1.082       .  S
C410        C479   1.477       .  S
C410        C411   1.386       .  A
C411        H413   1.082       .  S
Cu414       N417   2.088       .  S
Cu415       N425   2.091       .  S
Cu416       N418   2.081       .  S
Cu416       N424   2.081       .  S
N417        N418   1.323       .  A
N417        C421   1.348       .  A
N418        C419   1.347       .  A
C419        C420   1.384       .  A
C419        H422   1.082       .  S
C420        C421   1.387       .  A
C421        H423   1.082       .  S
N424        N425   1.323   1_545  A
N424        C428   1.346       .  A
N425        C426   1.349       .  A
C426        C427   1.389   1_565  A
C426        H429   1.081       .  S
C427        C504   1.483       .  S
C427        C428   1.385       .  A
C428        H430   1.082       .  S
N431        N432   1.324       .  A
N431        C435   1.347       .  A
N431       Cu439   2.085       .  S
N432        C433   1.349       .  A
N432       Cu438   2.095   1_545  S
C433        C434   1.387       .  A
C433        H436   1.082       .  S
C434        C467   1.479       .  S
C434        C435   1.385       .  A
C435        H437   1.082       .  S
Cu438       N441   2.095       .  S
Cu439       N449   2.085       .  S
Cu440       N442   2.087       .  S
Cu440       N448   2.087       .  S
N441        N442   1.324       .  A
N441        C445   1.349       .  A
N442        C443   1.348       .  A
C443        C444   1.385       .  A
C443        H446   1.082       .  S
C444        C495   1.480       .  S
C444        C445   1.387       .  A
C445        H447   1.082       .  S
N448        N449   1.323   1_565  A
N448        C452   1.346       .  A
N449        C450   1.348       .  A
C450        C451   1.388   1_545  A
C450        H453   1.082       .  S
C451        C507   1.483       .  S
C451        C452   1.387       .  A
C452        H454   1.082       .  S
O455       Cu463   2.008       .  S
O455        C465   1.278       .  A
O456       Cu463   2.001       .  S
O456        C466   1.276       .  A
O457       Cu463   2.024       .  S
O457        C467   1.279       .  A
O458       Cu463   2.020       .  S
O458        C468   1.278       .  A
O459       Cu464   2.027       .  S
O459        C468   1.280       .  A
O460       Cu464   2.022       .  S
O460        C467   1.279       .  A
O461       Cu464   1.998       .  S
O461        C466   1.277       .  A
O462       Cu464   1.998       .  S
O462        C465   1.275       .  A
Cu463      Cu464   2.375       .  S
O469       Cu477   2.014       .  S
O469        C479   1.278       .  A
O470       Cu477   2.019       .  S
O470        C480   1.279       .  A
O471       Cu477   1.996       .  S
O471        C481   1.275       .  A
O472       Cu477   2.002       .  S
O472        C482   1.277       .  A
O473       Cu478   2.004       .  S
O473        C482   1.276       .  A
O474       Cu478   2.006       .  S
O474        C481   1.278       .  A
O475       Cu478   2.025       .  S
O475        C480   1.279       .  A
O476       Cu478   2.028       .  S
O476        C479   1.280       .  A
Cu477      Cu478   2.376       .  S
O483       Cu491   2.002       .  S
O483        C493   1.275       .  A
O484       Cu491   2.004       .  S
O484        C494   1.277       .  A
O485       Cu491   2.027       .  S
O485        C495   1.280       .  A
O486       Cu491   2.028       .  S
O486        C496   1.280       .  A
O487       Cu492   2.014       .  S
O487        C496   1.278       .  A
O488       Cu492   2.021       .  S
O488        C495   1.279       .  A
O489       Cu492   2.002       .  S
O489        C494   1.276       .  A
O490       Cu492   2.003       .  S
O490        C493   1.278       .  A
Cu491      Cu492   2.375       .  S
C497        C502   1.386   1_545  A
C497        C498   1.405       .  A
C497        S503   1.710       .  A
C498        C499   1.406       .  A
C498        H509   1.083       .  S
C499        C508   1.376       .  A
C499        C500   1.386   1_545  A
C500        C501   1.403       .  A
C500        S506   1.708       .  A
C501        C502   1.404       .  A
C501        H510   1.083       .  S
C502        C505   1.374       .  A
S503        C504   1.727       .  A
C504        C505   1.389   1_545  A
C505        H511   1.082       .  S
S506        C507   1.725       .  A
C507        C508   1.391   1_565  A
C508        H512   1.082       .  S
C513        C518   1.386       .  A
C513        C514   1.404       .  A
C513        S519   1.708       .  A
C514        C515   1.404   1_556  A
C514        H525   1.083       .  S
C515        C524   1.375       .  A
C515        C516   1.386       .  A
C516        C517   1.406   1_554  A
C516        S522   1.710       .  A
C517        C518   1.406       .  A
C517        H526   1.083       .  S
C518        C521   1.378       .  A
S519        C520   1.726       .  A
C520        C521   1.391       .  A
C521        H527   1.082       .  S
S522        C523   1.727       .  A
C523        C524   1.389       .  A
C524        H528   1.082       .  S
C529        C534   1.386   1_565  A
C529        C530   1.402       .  A
C529        S535   1.708       .  A
C530        C531   1.403   1_565  A
C530        H541   1.083       .  S
C531        C540   1.371   1_545  A
C531        C532   1.387       .  A
C532        C533   1.399       .  A
C532        S538   1.704       .  A
C533        C534   1.400       .  A
C533        H542   1.083       .  S
C534        C537   1.368       .  A
S535        C536   1.725   1_565  A
C536        C537   1.385       .  A
C537        H543   1.082       .  S
S538        C539   1.723       .  A
C539        C540   1.387   1_545  A
C540        H544   1.083       .  S
C545        C550   1.386       .  A
C545        C546   1.403       .  A
C545        S551   1.706       .  A
C546        C547   1.403       .  A
C546        H557   1.083       .  S
C547        C556   1.372       .  A
C547        C548   1.387       .  A
C548        C549   1.400       .  A
C548        S554   1.704       .  A
C549        C550   1.401       .  A
C549        H558   1.083   1_655  S
C550        C553   1.370       .  A
S551        C552   1.725       .  A
C552        C553   1.386       .  A
C553        H559   1.082       .  S
S554        C555   1.723       .  A
C555        C556   1.388       .  A
C556        H560   1.082       .  S
C561        C566   1.386       .  A
C561        C562   1.403       .  A
C561        S567   1.707       .  A
C562        C563   1.403   1_556  A
C562        H573   1.083       .  S
C563        C572   1.373       .  A
C563        C564   1.386       .  A
C564        C565   1.403   1_554  A
C564        S570   1.707       .  A
C565        C566   1.403       .  A
C565        H574   1.083       .  S
C566        C569   1.373       .  A
S567        C568   1.726       .  A
C568        C569   1.388       .  A
C569        H575   1.082       .  S
S570        C571   1.725       .  A
C571        C572   1.388       .  A
C572        H576   1.082       .  S
C577        C582   1.386       .  A
C577        C578   1.402       .  A
C577        S583   1.706       .  A
C578        C579   1.403   1_556  A
C578        H589   1.083       .  S
C579        C588   1.371       .  A
C579        C580   1.386       .  A
C580        C581   1.401   1_554  A
C580        S586   1.705       .  A
C581        C582   1.402       .  A
C581        H590   1.083       .  S
C582        C585   1.371       .  A
S583        C584   1.725       .  A
C584        C585   1.387       .  A
C585        H591   1.082       .  S
S586        C587   1.724       .  A
C587        C588   1.388       .  A
C588        H592   1.082       .  S
C593        C598   1.386       .  A
C593        C594   1.400       .  A
C593        S599   1.707   1_655  A
C594        C595   1.402       .  A
C594        H605   1.083   1_655  S
C595        C604   1.368       .  A
C595        C596   1.386       .  A
C596        C597   1.400       .  A
C596        S602   1.707       .  A
C597        C598   1.402       .  A
C597        H606   1.083       .  S
C598        C601   1.368       .  A
S599        C600   1.724   1_455  A
C600        C601   1.387       .  A
C601        H607   1.082       .  S
S602        C603   1.723       .  A
C603        C604   1.388       .  A
C604        H608   1.082       .  S
C609        C614   1.387       .  A
C609        C610   1.400   1_554  A
C609        S615   1.705       .  A
C610        C611   1.401       .  A
C610        H621   1.083       .  S
C611        C620   1.367       .  A
C611        C612   1.386       .  A
C612        C613   1.402       .  A
C612        S618   1.709       .  A
C613        C614   1.403   1_556  A
C613        H622   1.083       .  S
C614        C617   1.370       .  A
S615        C616   1.723       .  A
C616        C617   1.388       .  A
C617        H623   1.082       .  S
S618        C619   1.724       .  A
C619        C620   1.387       .  A
C620        H624   1.082       .  S
