geometry optimzed in LAMMPS
_audit_creation_date              2020-12-01 
_audit_creation_method            'lammps2cif' 
_symmetry_space_group_name_H-M    'P1' 
_symmetry_Int_Tables_number       1 
_symmetry_cell_setting            triclinic 
loop_ 
_symmetry_equiv_pos_as_xyz 
  x,y,z 
_cell_length_a                    33.15297754 
_cell_length_b                    33.952725905935864 
_cell_length_c                    27.481503966040126 
_cell_angle_alpha                 89.90953325843981 
_cell_angle_beta                  90.77277950136674 
_cell_angle_gamma                 89.61935590276278 
loop_ 
_atom_site_label 
_atom_site_type_symbol 
_atom_site_fract_x 
_atom_site_fract_y 
_atom_site_fract_z 
_atom_site_charge 
O1          O  0.95572682  0.78039450  0.04417720    -0.71100
O2          O  0.03895575  0.85791035  0.04829607    -0.71400
O3          O  0.95740653  0.85999143  0.04764379    -0.71200
O4          O  0.03706705  0.77806021  0.04531931    -0.71200
O5          O  0.03748427  0.78078308  0.46662276    -0.71200
O6          O  0.95678459  0.86130959  0.46879953    -0.71200
O7          O  0.03788659  0.86005581  0.46935887    -0.71100
O8          O  0.95642114  0.78211028  0.46551166    -0.71300
V9          V  0.99732489  0.81911733  0.04489558     1.35200
V10         V  0.99715858  0.82103509  0.46919072     1.35200
C11         C  0.94179835  0.76798986  0.00388599     0.78100
C12         C  0.05234546  0.87237321  0.50924517     0.78200
C13         C  0.94350174  0.87454691  0.50859592     0.78000
C14         C  0.05089042  0.76526994  0.00551811     0.78000
O15         O  0.82375909  0.00642125  0.04344461    -0.71100
O16         O  0.89946503  0.92105117  0.04751382    -0.71400
O17         O  0.90407289  0.00018265  0.04351237    -0.71200
O18         O  0.81814112  0.92812029  0.04864870    -0.71200
O19         O  0.81818693  0.92353697  0.47002787    -0.71200
O20         O  0.90153548  0.99928589  0.46468028    -0.71200
O21         O  0.89929521  0.92007344  0.46873426    -0.71100
O22         O  0.82099273  0.00206691  0.46510387    -0.71300
V23         V  0.86138252  0.96380308  0.04427659     1.35200
V24         V  0.86005202  0.96120468  0.46867974     1.35200
C25         C  0.80931657  0.01863482  0.50355557     0.78100
C26         C  0.91279020  0.90642073  0.50860717     0.78200
C27         C  0.91650365  0.01295877  0.50360503     0.78000
C28         C  0.80367752  0.91362227  0.51047928     0.78000
O29         O  0.96223281  0.13633833  0.46170114    -0.71100
O30         O  0.04059603  0.05443475  0.46537824    -0.71400
O31         O  0.96002506  0.05697899  0.46324677    -0.71200
O32         O  0.04260488  0.13349111  0.46408749    -0.71200
O33         O  0.04047004  0.13607430  0.04272013    -0.71200
O34         O  0.96100648  0.05683615  0.04214783    -0.71200
O35         O  0.04154821  0.05666929  0.04425974    -0.71100
O36         O  0.96012687  0.13602514  0.04033661    -0.71300
V37         V  0.00134282  0.09532315  0.46512663     1.35200
V38         V  0.00078334  0.09634518  0.04084044     1.35200
C39         C  0.94800509  0.15028915  0.50053154     0.78100
C40         C  0.05443522  0.04157054  0.50544512     0.78200
C41         C  0.94716898  0.04339079  0.50287148     0.78000
C42         C  0.05499549  0.14843656  0.50360040     0.78000
O43         O  0.17771358  0.99453152  0.46517629    -0.71100
O44         O  0.09660952  0.91604460  0.46914405    -0.71400
O45         O  0.09711396  0.99526986  0.46690993    -0.71200
O46         O  0.17742916  0.91509652  0.46753746    -0.71200
O47         O  0.17958374  0.91658511  0.04662308    -0.71200
O48         O  0.09866755  0.99658959  0.04594738    -0.71200
O49         O  0.09835394  0.91691881  0.04819947    -0.71100
O50         O  0.17958801  0.99610214  0.04422826    -0.71300
V51         V  0.13727875  0.95521566  0.46878494     1.35200
V52         V  0.13903502  0.95649662  0.04476221     1.35200
C53         C  0.19197520  0.00939770  0.50384391     0.78100
C54         C  0.08375530  0.90297441  0.50912508     0.78200
C55         C  0.08463848  0.00984458  0.50625819     0.78000
C56         C  0.19212954  0.90186508  0.50705906     0.78000
C57         C  0.18049055  0.64230996  0.00468205    -0.01800
C58         C  0.30846244  0.76879189  0.50177675    -0.01800
N59         N  0.50036042  0.77571050  0.18062754    -0.36000
N60         N  0.56204855  0.78317366  0.25582927    -0.56500
N61         N  0.49890951  0.77897529  0.32893922    -0.36000
N62         N  0.43717794  0.77042183  0.25299742    -0.56500
C63         C  0.53435276  0.76791178  0.15542218     0.27600
C64         C  0.46882868  0.76283830  0.15331772     0.27600
C65         C  0.53147024  0.78303303  0.35877061     0.27600
C66         C  0.46584783  0.77658081  0.35721065     0.27600
C67         C  0.58467636  0.79100307  0.21647968     0.36200
C68         C  0.58471743  0.79197262  0.29551200     0.36200
C69         C  0.41346939  0.77119885  0.21267515     0.36200
C70         C  0.41242861  0.77231157  0.29156770     0.36200
C71         C  0.52417088  0.74919146  0.11214104    -0.21200
C72         C  0.48283749  0.74665310  0.11043267    -0.21200
C73         C  0.51877366  0.78346746  0.40671742    -0.21200
C74         C  0.47761875  0.77929872  0.40574172    -0.21200
C75         C  0.62159346  0.80601713  0.23126323    -0.22300
C76         C  0.62228433  0.80506977  0.28104134    -0.22300
C77         C  0.37323528  0.77306669  0.22555514    -0.22300
C78         C  0.37255513  0.77346568  0.27558177    -0.22300
C79         C  0.57373274  0.78101661  0.16804150    -0.17700
C80         C  0.42760256  0.76749563  0.16463303    -0.17700
C81         C  0.42510303  0.77328403  0.34099971    -0.17600
C82         C  0.57230933  0.78756482  0.34445961    -0.17600
H83         H  0.54435231  0.73940932  0.08392184     0.15300
H84         H  0.46514772  0.73435721  0.08084186     0.15300
H85         H  0.53708718  0.78721898  0.43925305     0.15300
H86         H  0.45851866  0.77897693  0.43737467     0.15300
H87         H  0.64612792  0.81592943  0.20890901     0.13500
H88         H  0.64784912  0.81356748  0.30326330     0.13500
H89         H  0.34711625  0.77339262  0.20148632     0.13500
H90         H  0.34576237  0.77477386  0.29761472     0.13500
H91         H  0.49826475  0.79370001  0.21111034     0.26800
H92         H  0.49928250  0.77768471  0.29149830     0.26800
C93         C  0.69143320  0.78183211  0.50637184    -0.01800
C94         C  0.81020902  0.64984141  0.48992491    -0.01800
C95         C  0.31160989  0.13858188  0.99560912    -0.01800
C96         C  0.18372226  0.26628741  0.00098189    -0.01800
N97         N  0.17511378  0.45352023  0.17819984    -0.36000
N98         N  0.17016898  0.51487875  0.25380138    -0.56500
N99         N  0.18295297  0.45462118  0.32764768    -0.36000
N100        N  0.18759316  0.39322125  0.25212084    -0.56500
C101        C  0.17696254  0.48634147  0.15013404     0.27600
C102        C  0.18536564  0.42244518  0.14970274     0.27600
C103        C  0.17449816  0.48595504  0.35654322     0.27600
C104        C  0.18091803  0.42185570  0.35577267     0.27600
C105        C  0.16655474  0.53833537  0.21412503     0.36200
C106        C  0.17013396  0.53885313  0.29319391     0.36200
C107        C  0.18821856  0.36933007  0.21274911     0.36200
C108        C  0.18978360  0.36960985  0.29169887     0.36200
C109        C  0.18800982  0.47576834  0.10332611    -0.21200
C110        C  0.19317949  0.43568760  0.10306465    -0.21200
C111        C  0.16766911  0.47291163  0.40352423    -0.21200
C112        C  0.17153645  0.43269815  0.40302942    -0.21200
C113        C  0.16324873  0.57736633  0.22858232    -0.22300
C114        C  0.16621627  0.57772922  0.27840987    -0.22300
C115        C  0.19096213  0.33034267  0.22739969    -0.22300
C116        C  0.19260254  0.33053323  0.27724656    -0.22300
C117        C  0.16960850  0.52584640  0.16495625    -0.17700
C118        C  0.18747433  0.38216501  0.16370999    -0.17700
C119        C  0.18696245  0.38220054  0.34073641    -0.17600
C120        C  0.17263439  0.52622295  0.34240594    -0.17600
H121        H  0.19257290  0.49495860  0.07243715     0.15300
H122        H  0.20235945  0.41832612  0.07206486     0.15300
H123        H  0.15982944  0.49047515  0.43489409     0.15300
H124        H  0.16729417  0.41361337  0.43409416     0.15300
H125        H  0.16016523  0.60317256  0.20563556     0.13500
H126        H  0.16550311  0.60378350  0.30099260     0.13500
H127        H  0.19186873  0.30435295  0.20470852     0.13500
H128        H  0.19481730  0.30461878  0.30011796     0.13500
H129        H  0.16429994  0.45216729  0.21341399     0.26800
H130        H  0.19268295  0.45572407  0.29197362     0.26800
N131        N  0.50490077  0.13831170  0.32144151    -0.36000
N132        N  0.44162615  0.14539018  0.24660077    -0.56500
N133        N  0.50410882  0.15092139  0.17197969    -0.36000
N134        N  0.56736397  0.14356588  0.24646446    -0.56500
C135        C  0.47211137  0.14056276  0.35046607     0.27600
C136        C  0.53834044  0.14026216  0.35034247     0.27600
C137        C  0.47098097  0.14802588  0.14290406     0.27600
C138        C  0.53678449  0.14775804  0.14312901     0.27600
C139        C  0.41747134  0.14426909  0.28590386     0.36200
C140        C  0.41722308  0.14812670  0.20684502     0.36200
C141        C  0.59198182  0.14131731  0.28598754     0.36200
C142        C  0.59138104  0.14622493  0.20719266     0.36200
C143        C  0.48512693  0.14209851  0.39863711    -0.21200
C144        C  0.52648360  0.14271440  0.39850561    -0.21200
C145        C  0.48298946  0.14466078  0.09480814    -0.21200
C146        C  0.52417351  0.14383089  0.09507000    -0.21200
C147        C  0.37740511  0.14674943  0.27085757    -0.22300
C148        C  0.37725043  0.14873465  0.22099913    -0.22300
C149        C  0.63193478  0.14182478  0.27147506    -0.22300
C150        C  0.63153030  0.14551222  0.22182958    -0.22300
C151        C  0.43071280  0.14200696  0.33531511    -0.17700
C152        C  0.57938914  0.14044525  0.33520013    -0.17700
C153        C  0.57789763  0.14822581  0.15810492    -0.17600
C154        C  0.43006786  0.14834758  0.15776772    -0.17600
H155        H  0.46696715  0.14331164  0.43098525     0.15300
H156        H  0.54546639  0.14507613  0.43066742     0.15300
H157        H  0.46431878  0.14278597  0.06234543     0.15300
H158        H  0.54260340  0.14038709  0.06313420     0.15300
H159        H  0.35083790  0.14719558  0.29328270     0.13500
H160        H  0.35058669  0.15033536  0.19792273     0.13500
H161        H  0.65880283  0.14008986  0.29417943     0.13500
H162        H  0.65792764  0.14719660  0.19920726     0.13500
H163        H  0.50457373  0.13369401  0.28400394     0.26800
H164        H  0.50433519  0.15756474  0.20895608     0.26800
C165        C  0.69616663  0.15512749  0.99892315    -0.01800
C166        C  0.82684903  0.27791892  0.49284776    -0.01800
N167        N  0.80960831  0.46196271  0.16672347    -0.36000
N168        N  0.80921041  0.52509891  0.23829469    -0.56500
N169        N  0.81381409  0.46579466  0.31517959    -0.36000
N170        N  0.81372824  0.40275168  0.24368975    -0.56500
C171        C  0.81601521  0.49337579  0.13739741     0.27600
C172        C  0.81780314  0.42932888  0.14024715     0.27600
C173        C  0.80662430  0.49843694  0.34209705     0.27600
C174        C  0.80954372  0.43428402  0.34502275     0.27600
C175        C  0.80847749  0.54778963  0.19789976     0.36200
C176        C  0.80910177  0.54987649  0.27666879     0.36200
C177        C  0.81359846  0.37798328  0.20531176     0.36200
C178        C  0.81553689  0.38000364  0.28401612     0.36200
C179        C  0.82791841  0.48048173  0.09190610    -0.21200
C180        C  0.82907444  0.44026670  0.09372127    -0.21200
C181        C  0.79806220  0.48740698  0.38947720    -0.21200
C182        C  0.79990854  0.44712367  0.39132403    -0.21200
C183        C  0.80735099  0.58727024  0.21067422    -0.22300
C184        C  0.80843979  0.58860138  0.26052895    -0.22300
C185        C  0.81475691  0.33925811  0.22137079    -0.22300
C186        C  0.81684673  0.34055301  0.27112013    -0.22300
C187        C  0.81155649  0.53360482  0.14975052    -0.17700
C188        C  0.81512718  0.38967450  0.15601849    -0.17700
C189        C  0.81416717  0.39405139  0.33236471    -0.17600
C190        C  0.80820357  0.53816343  0.32605026    -0.17600
H191        H  0.83564571  0.49820711  0.06065068     0.15300
H192        H  0.83774292  0.42129283  0.06405322     0.15300
H193        H  0.79096743  0.50639104  0.41975470     0.15300
H194        H  0.79430463  0.42930409  0.42319543     0.15300
H195        H  0.80675484  0.61258697  0.18670791     0.13500
H196        H  0.80841708  0.61515075  0.28224583     0.13500
H197        H  0.81491443  0.31269827  0.19968524     0.13500
H198        H  0.81856893  0.31516359  0.29490730     0.13500
H199        H  0.79688921  0.46259369  0.20102407     0.26800
H200        H  0.82469319  0.46525107  0.27999081     0.26800
C201        C  0.79290370  0.33170136  0.04162810    -0.11600
C202        C  0.82627407  0.30539894  0.03864613     0.05400
C203        C  0.85631582  0.30780834  0.07681569    -0.06900
C204        C  0.85099110  0.33445575  0.11516407    -0.07700
C205        C  0.81686874  0.35863860  0.11793182    -0.02200
C206        C  0.78716892  0.35669266  0.08117958     0.04600
N207        N  0.75113721  0.38027366  0.08339075     0.67100
H208        H  0.76956159  0.33122262  0.01368596     0.16000
H209        H  0.87462605  0.33728217  0.14256903     0.15700
N210        N  0.89364043  0.28623886  0.07710993     0.74800
O211        O  0.73780052  0.39764072  0.04578278    -0.38600
O212        O  0.73095392  0.38146692  0.12199682    -0.38600
O213        O  0.92079229  0.29513754  0.04742104    -0.39300
O214        O  0.90331088  0.26618565  0.11425617    -0.39300
C215        C  0.79002011  0.30965060  0.41839386    -0.11600
C216        C  0.82497958  0.30759675  0.44888561     0.05400
C217        C  0.85413380  0.33815397  0.44228621    -0.06900
C218        C  0.85029895  0.36457880  0.40331385    -0.07700
C219        C  0.81641975  0.36469919  0.37270580    -0.02200
C220        C  0.78522558  0.33788245  0.38143243     0.04600
N221        N  0.74803650  0.33960316  0.35397957     0.67100
H222        H  0.76445790  0.29090672  0.42449862     0.16000
H223        H  0.87336854  0.38663994  0.39820198     0.15700
N224        N  0.88585315  0.34582311  0.47672402     0.74800
O225        O  0.73034613  0.30826747  0.34173852    -0.38600
O226        O  0.73104078  0.37231416  0.34537921    -0.38600
O227        O  0.92187422  0.34169732  0.46335315    -0.39300
O228        O  0.87891116  0.37046924  0.50993418    -0.39300
C229        C  0.75373806  0.19155507  0.46148746    -0.11600
C230        C  0.72547387  0.19107449  0.99944405     0.05400
C231        C  0.73029002  0.22079694  0.03604383    -0.06900
C232        C  0.76210337  0.24809195  0.53257372    -0.07700
C233        C  0.78897924  0.24954593  0.49290693    -0.02200
C234        C  0.78351575  0.22001888  0.45673373     0.04600
N235        N  0.80896692  0.21663892  0.41534537     0.67100
H236        H  0.75190309  0.16943233  0.43320236     0.16000
H237        H  0.76630517  0.26643857  0.06394818     0.15700
N238        N  0.70606961  0.22381564  0.07891534     0.74800
O239        O  0.83338265  0.18833731  0.91368805    -0.38600
O240        O  0.79673945  0.23120594  0.37548708    -0.38600
O241        O  0.70900589  0.19787752  0.11163371    -0.39300
O242        O  0.69276349  0.25738180  0.59094243    -0.39300
C243        C  0.63467594  0.17690892  0.37737448    -0.11600
C244        C  0.61151513  0.14273985  0.37390533     0.05400
C245        C  0.61756482  0.11265168  0.40853027    -0.06900
C246        C  0.64399389  0.11905606  0.44793936    -0.07700
C247        C  0.66833334  0.15322750  0.45225347    -0.02200
C248        C  0.66355640  0.18235557  0.41450654     0.04600
N249        N  0.68593588  0.21823046  0.41240850     0.67100
H250        H  0.62997313  0.20013607  0.35072686     0.16000
H251        H  0.64700614  0.09596931  0.47498283     0.15700
N252        N  0.59709825  0.07554800  0.40424915     0.74800
O253        O  0.70626452  0.22530493  0.37490917    -0.38600
O254        O  0.67700585  0.24647515  0.44005173    -0.38600
O255        O  0.59191450  0.05984609  0.36303628    -0.39300
O256        O  0.58774055  0.05648051  0.44188094    -0.39300
C257        C  0.60977097  0.18251295  0.08857158    -0.11600
C258        C  0.60866052  0.14953900  0.11896396     0.05400
C259        C  0.63379985  0.11714644  0.10882663    -0.06900
C260        C  0.66196485  0.11993314  0.07140468    -0.07700
C261        C  0.66528082  0.15397486  0.04164558    -0.02200
C262        C  0.63519915  0.18385278  0.04837642     0.04600
N263        N  0.62693459  0.21386365  0.01299189     0.67100
H264        H  0.58840958  0.20636215  0.09406566     0.16000
H265        H  0.67926022  0.09366304  0.06406169     0.15700
N266        N  0.62981114  0.08056481  0.13459052     0.74800
O267        O  0.60060907  0.20672983  0.98064987    -0.38600
O268        O  0.63289799  0.24959260  0.52466935    -0.38600
O269        O  0.59539993  0.06571005  0.14044429    -0.39300
O270        O  0.66080056  0.06082196  0.14652419    -0.39300
C271        C  0.15375558  0.32660241  0.38277316    -0.11600
C272        C  0.18706841  0.35127599  0.37928207     0.05400
C273        C  0.21821394  0.34844062  0.41428548    -0.06900
C274        C  0.21502895  0.32131478  0.45238281    -0.07700
C275        C  0.18250457  0.29458500  0.45587941    -0.02200
C276        C  0.15060369  0.29841981  0.41981025     0.04600
N277        N  0.11447899  0.27520523  0.41884876     0.67100
H278        H  0.12928932  0.32975895  0.35643534     0.16000
H279        H  0.23932521  0.32005990  0.47909878     0.15700
N280        N  0.25319764  0.37302586  0.41174613     0.74800
O281        O  0.10516387  0.25701562  0.38029537    -0.38600
O282        O  0.08694936  0.28211636  0.44888944    -0.38600
O283        O  0.26825377  0.38763988  0.45004259    -0.39300
O284        O  0.27108128  0.37757751  0.37188215    -0.39300
C285        C  0.15371382  0.34926418  0.09395242    -0.11600
C286        C  0.18780548  0.35195389  0.12391241     0.05400
C287        C  0.22111259  0.32723611  0.11438852    -0.06900
C288        C  0.21881939  0.29977150  0.07600858    -0.07700
C289        C  0.18384796  0.29554693  0.04593728    -0.02200
C290        C  0.15174800  0.32305602  0.05476088     0.04600
N291        N  0.11724581  0.32685875  0.02346243     0.67100
H292        H  0.12844515  0.36901657  0.10007406     0.16000
H293        H  0.24574051  0.28273765  0.06906656     0.15700
N294        N  0.25778761  0.33008742  0.14254372     0.74800
O295        O  0.08343363  0.31661400  0.03968722    -0.38600
O296        O  0.11804461  0.35339111  0.49125338    -0.38600
O297        O  0.27724300  0.29932866  0.15420384    -0.39300
O298        O  0.27228023  0.36332817  0.15311469    -0.39300
C299        C  0.24922151  0.23596488  0.46299053    -0.11600
C300        C  0.22204440  0.23831195  0.00229778     0.05400
C301        C  0.22689116  0.20898769  0.03912962    -0.06900
C302        C  0.25635995  0.17966390  0.03504136    -0.07700
C303        C  0.28201874  0.17560554  0.99479081    -0.02200
C304        C  0.27664406  0.20437739  0.45704266     0.04600
N305        N  0.29414544  0.20057461  0.90991491     0.67100
H306        H  0.24592784  0.25561680  0.43236356     0.16000
H307        H  0.25784428  0.15834944  0.06380907     0.15700
N308        N  0.19952994  0.20522177  0.57879380     0.74800
O309        O  0.28255486  0.17327877  0.38202353    -0.38600
O310        O  0.31228418  0.22958144  0.89175992    -0.38600
O311        O  0.17818329  0.17463400  0.58130974    -0.39300
O312        O  0.20526287  0.22503246  0.11700918    -0.39300
C313        C  0.39599616  0.11218431  0.09062377    -0.11600
C314        C  0.39867689  0.14644230  0.11849378     0.05400
C315        C  0.37407088  0.17898097  0.10625122    -0.06900
C316        C  0.34571750  0.17565931  0.06810345    -0.07700
C317        C  0.34220272  0.14095892  0.03950955    -0.02200
C318        C  0.37068569  0.11014088  0.04968726     0.04600
N319        N  0.37599008  0.07712119  0.01814561     0.67100
H320        H  0.41608395  0.08763439  0.09873172     0.16000
H321        H  0.32839965  0.20179793  0.05936544     0.15700
N322        N  0.37843131  0.21598460  0.13100830     0.74800
O323        O  0.40363256  0.07883069  0.98709589    -0.38600
O324        O  0.36520874  0.04361226  0.53185699    -0.38600
O325        O  0.41304484  0.23008240  0.13891898    -0.39300
O326        O  0.34769860  0.23659921  0.14043183    -0.39300
C327        C  0.37358754  0.10957146  0.37795159    -0.11600
C328        C  0.39897670  0.14210251  0.37393149     0.05400
C329        C  0.39463629  0.17328910  0.40727352    -0.06900
C330        C  0.36718832  0.16969172  0.44554489    -0.07700
C331        C  0.34021335  0.13752429  0.44993250    -0.02200
C332        C  0.34408554  0.10686990  0.41413132     0.04600
N333        N  0.31981453  0.07220607  0.41286067     0.67100
H334        H  0.37686875  0.08551094  0.35237879     0.16000
H335        H  0.36526954  0.19373517  0.47125798     0.15700
N336        N  0.41767535  0.20886743  0.40276842     0.74800
O337        O  0.29921819  0.06512694  0.37493309    -0.38600
O338        O  0.32760910  0.04421095  0.44174551    -0.38600
O339        O  0.42479640  0.22313973  0.36133342    -0.39300
O340        O  0.42793513  0.22803402  0.44022145    -0.39300
C341        C  0.77775749  0.62199451  0.41028184    -0.11600
C342        C  0.81121732  0.62383781  0.44301001     0.05400
C343        C  0.84374174  0.59677347  0.43482644    -0.06900
C344        C  0.84230141  0.57091744  0.39536117    -0.07700
C345        C  0.80874625  0.56919105  0.36427172    -0.02200
C346        C  0.77594231  0.59485098  0.37191343     0.04600
N347        N  0.73968533  0.59237848  0.34284168     0.67100
H348        H  0.75062305  0.63872836  0.41657882     0.16000
H349        H  0.86727906  0.55068219  0.38994259     0.17300
N350        N  0.87749070  0.59287679  0.46771643     0.74800
O351        O  0.72421686  0.55932841  0.33345141    -0.38600
O352        O  0.72086474  0.62336011  0.33056951    -0.38600
O353        O  0.88351385  0.56025998  0.48880405    -0.39300
O354        O  0.90617657  0.61700841  0.46572469    -0.39300
C355        C  0.84473947  0.61472646  0.06406192    -0.11600
C356        C  0.81116514  0.61851519  0.03175382     0.05400
C357        C  0.78009386  0.58964547  0.03630308    -0.06900
C358        C  0.78067825  0.56336099  0.07554780    -0.07700
C359        C  0.81258437  0.56264087  0.10923634    -0.02200
C360        C  0.84578223  0.58743802  0.10225824     0.04600
N361        N  0.88132755  0.58448175  0.13260617     0.67100
H362        H  0.87211202  0.63087007  0.05833967     0.16000
H363        H  0.75618048  0.54262197  0.07926781     0.15700
N364        N  0.74871282  0.58485155  0.00043105     0.74800
O365        O  0.89626893  0.55119459  0.14311544    -0.38600
O366        O  0.90015891  0.61516771  0.14492885    -0.38600
O367        O  0.71718186  0.60574420  0.00215159    -0.39300
O368        O  0.74782096  0.55347304  0.97591141    -0.39300
C369        C  0.71413834  0.71071733  0.03210987    -0.11600
C370        C  0.71419703  0.74157125  0.49796727     0.05400
C371        C  0.73761879  0.73489717  0.45559402    -0.06900
C372        C  0.76529351  0.70378358  0.45435318    -0.07700
C373        C  0.77199769  0.67761163  0.49342533    -0.02200
C374        C  0.74491780  0.68185587  0.03363100     0.04600
N375        N  0.74923050  0.66027071  0.07834416     0.67100
H376        H  0.69233759  0.71002800  0.06061775     0.16000
H377        H  0.78324615  0.70123148  0.42236673     0.15700
N378        N  0.73677285  0.76105176  0.41466521     0.74800
O379        O  0.71910399  0.64237843  0.09496103    -0.38600
O380        O  0.77771508  0.66867830  0.10730130    -0.38600
O381        O  0.76813137  0.78031537  0.40511386    -0.39300
O382        O  0.71179274  0.75453695  0.38060887    -0.39300
C383        C  0.64325795  0.76751151  0.13508748    -0.11600
C384        C  0.60455452  0.78391337  0.12855199     0.05400
C385        C  0.59586091  0.80372596  0.08448340    -0.06900
C386        C  0.62334582  0.80132442  0.04636319    -0.07700
C387        C  0.66218345  0.78335354  0.05152679    -0.02200
C388        C  0.67320511  0.77211392  0.09988501     0.04600
N389        N  0.71439450  0.76834577  0.11546835     0.67100
H390        H  0.65132515  0.75357557  0.16935083     0.16000
H391        H  0.61462207  0.81645341  0.01325703     0.15700
N392        N  0.55974028  0.82708473  0.07804585     0.74800
O393        O  0.73499795  0.79931862  0.11937455    -0.38600
O394        O  0.72515437  0.73852630  0.14003052    -0.38600
O395        O  0.54737963  0.84881584  0.11205821    -0.39300
O396        O  0.54251166  0.82926594  0.03685612    -0.39300
C397        C  0.62747838  0.81972971  0.39310169    -0.11600
C398        C  0.60402042  0.78646592  0.38357243     0.05400
C399        C  0.60995573  0.75252974  0.41231063    -0.06900
C400        C  0.63759758  0.75351073  0.45106877    -0.07700
C401        C  0.66361694  0.78589910  0.45976130    -0.02200
C402        C  0.65898221  0.81915599  0.42780635     0.04600
N403        N  0.68563360  0.85212187  0.42764291     0.67100
H404        H  0.62249653  0.84606079  0.37144000     0.16000
H405        H  0.63945139  0.72789643  0.47455613     0.15700
N406        N  0.58767898  0.71702109  0.40315502     0.74800
O407        O  0.72160590  0.84738300  0.41440180    -0.38600
O408        O  0.67102222  0.88656972  0.42805114    -0.38600
O409        O  0.58286072  0.70456392  0.36021775    -0.39300
O410        O  0.57584655  0.69615979  0.43818850    -0.39300
C411        C  0.37587738  0.80717016  0.39454720    -0.11600
C412        C  0.39356527  0.77214563  0.37893602     0.05400
C413        C  0.38393956  0.73694648  0.40235494    -0.06900
C414        C  0.35657695  0.73715057  0.44053804    -0.07700
C415        C  0.33628333  0.77168323  0.45598552    -0.02200
C416        C  0.34839551  0.80788705  0.43299952     0.04600
N417        N  0.33522480  0.84614792  0.44825100     0.67100
H418        H  0.38455311  0.83464761  0.37760986     0.16000
H419        H  0.35058567  0.70928985  0.45732013     0.15700
N420        N  0.40246289  0.70067195  0.38828970     0.74800
O421        O  0.35990612  0.86720957  0.47173178    -0.38600
O422        O  0.30864504  0.86356348  0.42275667    -0.38600
O423        O  0.43301136  0.68794947  0.41141171    -0.39300
O424        O  0.38530025  0.67900159  0.35715276    -0.39300
C425        C  0.36061292  0.80151603  0.05965754    -0.11600
C426        C  0.34018792  0.76681827  0.04526644     0.05400
C427        C  0.35518091  0.73105274  0.06698644    -0.06900
C428        C  0.38194944  0.73211108  0.10697826    -0.07700
C429        C  0.39777886  0.76748294  0.12377924    -0.02200
C430        C  0.38794841  0.80231742  0.09891497     0.04600
N431        N  0.40575080  0.83883755  0.11309799     0.67100
H432        H  0.35398604  0.82902667  0.04198081     0.16000
H433        H  0.39172486  0.70475268  0.12393331     0.15700
N434        N  0.34609098  0.69302398  0.04823363     0.74800
O435        O  0.43398450  0.85315532  0.08849176    -0.38600
O436        O  0.39481594  0.85570879  0.15166398    -0.38600
O437        O  0.37407154  0.67366990  0.02846587    -0.39300
O438        O  0.31858986  0.67410490  0.06850779    -0.39300
C439        C  0.27152309  0.70860343  0.46162994    -0.11600
C440        C  0.27859665  0.73273827  0.50276831     0.05400
C441        C  0.25234848  0.72680740  0.04288804    -0.06900
C442        C  0.22259650  0.69769328  0.04085204    -0.07700
C443        C  0.21752747  0.67130095  0.00181504    -0.02200
C444        C  0.24199081  0.67885316  0.45992865     0.04600
N445        N  0.23595879  0.66028902  0.41348486     0.67100
H446        H  0.28612681  0.71483722  0.42771656     0.16000
H447        H  0.20283678  0.69565285  0.07140429     0.15700
N448        N  0.25345949  0.75106501  0.08551905     0.74800
O449        O  0.20734058  0.67184666  0.38625085    -0.38600
O450        O  0.26553034  0.64328672  0.39383360    -0.38600
O451        O  0.22253637  0.76980075  0.59714318    -0.39300
O452        O  0.27984653  0.74454361  0.11807899    -0.39300
C453        C  0.14628558  0.58758053  0.05177219    -0.11600
C454        C  0.17999091  0.61325750  0.04948017     0.05400
C455        C  0.20995647  0.60839817  0.08720699    -0.06900
C456        C  0.20466300  0.58077380  0.12441855    -0.07700
C457        C  0.17078655  0.55692702  0.12646560    -0.02200
C458        C  0.14119777  0.56022861  0.08958315     0.04600
N459        N  0.10578933  0.53616795  0.09008170     0.67100
H460        H  0.12253959  0.58986431  0.02447479     0.16000
H461        H  0.22827330  0.57708999  0.15179989     0.15700
N462        N  0.24753530  0.62828027  0.08846540     0.74800
O463        O  0.08607734  0.53214036  0.12873718    -0.38600
O464        O  0.09261513  0.52096805  0.05115670    -0.38600
O465        O  0.25330121  0.65260782  0.12254261    -0.39300
O466        O  0.27772950  0.60984497  0.07255624    -0.39300
C467        C  0.14330349  0.60931094  0.43030440    -0.11600
C468        C  0.17856955  0.61306415  0.45987395     0.05400
C469        C  0.21008974  0.58504476  0.45126116    -0.06900
C470        C  0.20772079  0.55888273  0.41195599    -0.07700
C471        C  0.17331957  0.55657075  0.38221722    -0.02200
C472        C  0.14013898  0.58128216  0.39259551     0.04600
N473        N  0.10243356  0.57716971  0.36675820     0.67100
H474        H  0.11644942  0.62605069  0.43827777     0.16000
H475        H  0.23269294  0.53880332  0.40576708     0.15700
N476        N  0.24374215  0.58036570  0.48380904     0.74800
O477        O  0.08842067  0.54340584  0.35790520    -0.38600
O478        O  0.08116572  0.60718385  0.35688572    -0.38600
O479        O  0.24446689  0.55061850  0.51143553    -0.39300
O480        O  0.27675002  0.59641834  0.47348275    -0.39300
C481        C  0.22341094  0.84424590  0.96668308    -0.11600
C482        C  0.22226201  0.86927263  0.50676287     0.05400
C483        C  0.24764866  0.86078761  0.54694036    -0.06900
C484        C  0.27438011  0.82868676  0.54527725    -0.07700
C485        C  0.27837310  0.80470968  0.50336429    -0.02200
C486        C  0.25011627  0.81212624  0.96471515     0.04600
N487        N  0.24663011  0.78668433  0.92335019     0.67100
H488        H  0.20268105  0.84904091  0.93637927     0.16000
H489        H  0.29062093  0.82209105  0.57854806     0.15700
N490        N  0.24672756  0.88434863  0.59005516     0.74800
O491        O  0.21422764  0.76797368  0.91689400    -0.38600
O492        O  0.26989602  0.79213479  0.38711000    -0.38600
O493        O  0.23595214  0.86986444  0.12976692    -0.39300
O494        O  0.25979941  0.91916846  0.58915561    -0.39300
C495        C  0.25327999  0.09773550  0.96265988    -0.11600
C496        C  0.28199685  0.10263068  0.00072540     0.05400
C497        C  0.27706644  0.07764193  0.54274317    -0.06900
C498        C  0.24818181  0.04745021  0.54176257    -0.07700
C499        C  0.22197382  0.04184913  0.50217552    -0.02200
C500        C  0.22424427  0.06789079  0.96256903     0.04600
N501        N  0.19643219  0.06546316  0.92235210     0.67100
H502        H  0.25381609  0.11733793  0.93169788     0.16000
H503        H  0.24547979  0.02860653  0.57341446     0.15700
N504        N  0.29793113  0.08295231  0.58848247     0.74800
O505        O  0.15921802  0.07100321  0.92895295    -0.38600
O506        O  0.20905467  0.06340061  0.37939327    -0.38600
O507        O  0.28907740  0.11238747  0.11505471    -0.39300
O508        O  0.31453421  0.05348478  0.60867864    -0.39300
C509        C  0.92060017  0.21084809  0.46117147    -0.11600
C510        C  0.91846929  0.18313984  0.49884680     0.05400
C511        C  0.88891612  0.18794417  0.03438969    -0.06900
C512        C  0.86237204  0.21993654  0.03153110    -0.07700
C513        C  0.86309676  0.24812836  0.49341559    -0.02200
C514        C  0.89355505  0.24287590  0.45721568     0.04600
N515        N  0.89755850  0.26743776  0.41501098     0.67100
H516        H  0.94336215  0.20716357  0.43356418     0.16000
H517        H  0.83988174  0.22241124  0.05961552     0.15700
N518        N  0.88414314  0.15970811  0.07277905     0.74800
O519        O  0.93217342  0.27987100  0.40443042    -0.38600
O520        O  0.87151402  0.26550557  0.38127359    -0.38600
O521        O  0.87865422  0.17128554  0.11583309    -0.39300
O522        O  0.87947643  0.12383450  0.56308675    -0.39300
C523        C  0.11408270  0.17865731  0.46607265    -0.11600
C524        C  0.08607017  0.17913287  0.50332525     0.05400
C525        C  0.08922647  0.20760368  0.03995498    -0.06900
C526        C  0.12018091  0.23530049  0.03861611    -0.07700
C527        C  0.14818053  0.23649458  0.00017424    -0.02200
C528        C  0.14548273  0.20574917  0.46438390     0.04600
N529        N  0.17556052  0.19887726  0.42810013     0.67100
H530        H  0.11251080  0.15589185  0.43848888     0.16000
H531        H  0.12277322  0.25459204  0.06955880     0.15700
N532        N  0.06140175  0.20878440  0.07922693     0.74800
O533        O  0.19075826  0.16487790  0.92434672    -0.38600
O534        O  0.18032483  0.22291250  0.39369316    -0.38600
O535        O  0.07223711  0.19687352  0.12094189    -0.39300
O536        O  0.02844548  0.22678887  0.57446797    -0.39300
C537        C  0.79027011  0.84437007  0.51096440    -0.11600
C538        C  0.77445346  0.88195545  0.51307105     0.05400
C539        C  0.73326739  0.88758159  0.02217772    -0.06900
C540        C  0.70793529  0.85448825  0.02383609    -0.07700
C541        C  0.72268971  0.81578071  0.51459833    -0.02200
C542        C  0.76594132  0.81140189  0.51442214     0.04600
N543        N  0.78723902  0.77515807  0.02071100     0.67100
H544        H  0.82274980  0.84052837  0.50879250     0.16000
H545        H  0.67596972  0.85960693  0.02814978     0.15700
N546        N  0.71646434  0.92629448  0.52762061     0.74800
O547        O  0.81614219  0.76752249  0.49299530    -0.38600
O548        O  0.78681551  0.75853861  0.06174319    -0.38600
O549        O  0.72561884  0.95333865  0.49827667    -0.39300
O550        O  0.69088951  0.93307718  0.06021058    -0.39300
C551        C  0.77704226  0.07664855  0.04174415    -0.11600
C552        C  0.78031463  0.05217562  0.00121681     0.05400
C553        C  0.75796362  0.06192693  0.45918621    -0.06900
C554        C  0.73181283  0.09450629  0.45901199    -0.07700
C555        C  0.72613120  0.11850470  0.00044096    -0.02200
C556        C  0.75199133  0.10999781  0.04133699     0.04600
N557        N  0.75466255  0.13511377  0.08278741     0.67100
H558        H  0.79551292  0.07088750  0.07385570     0.16000
H559        H  0.71702182  0.10126818  0.42473709     0.15700
N560        N  0.76193668  0.03963190  0.41538320     0.74800
O561        O  0.74172941  0.12249930  0.12286945    -0.38600
O562        O  0.78208708  0.16064905  0.58395022    -0.38600
O563        O  0.74412756  0.00719727  0.91046513    -0.39300
O564        O  0.77938688  0.05447254  0.37924566    -0.39300
C565        C  0.85554955  0.69882893  0.53595671    -0.11600
C566        C  0.84667476  0.67965289  0.49131144     0.05400
C567        C  0.86853361  0.69340666  0.94971407    -0.06900
C568        C  0.89938870  0.72128681  0.95560685    -0.07700
C569        C  0.90934335  0.73774577  0.50103649    -0.02200
C570        C  0.88699549  0.72592571  0.54161670     0.04600
N571        N  0.89464637  0.74210264  0.58880275     0.67100
H572        H  0.83796622  0.69248814  0.56765335     0.16000
H573        H  0.91547321  0.73058831  0.92354247     0.15700
N574        N  0.85944129  0.68195034  0.90057314     0.74800
O575        O  0.88114298  0.77583262  0.59927634    -0.38600
O576        O  0.90761048  0.72093838  0.12256098    -0.38600
O577        O  0.84081657  0.70651839  0.37366850    -0.39300
O578        O  0.88260843  0.65753446  0.88030446    -0.39300
C579        C  0.08993951  0.71101112  0.04712831    -0.11600
C580        C  0.08197486  0.73298909  0.00483009     0.05400
C581        C  0.10456566  0.72414088  0.46319461    -0.06900
C582        C  0.13493242  0.69524117  0.46513555    -0.07700
C583        C  0.14303584  0.67171936  0.00676868    -0.02200
C584        C  0.11952897  0.68099917  0.04909493     0.04600
N585        N  0.12530580  0.66224310  0.09543884     0.67100
H586        H  0.07314575  0.71740071  0.07978061     0.16000
H587        H  0.15200844  0.69079980  0.43272789     0.15700
N588        N  0.09743569  0.74442618  0.41826590     0.74800
O589        O  0.09716055  0.64139911  0.11183138    -0.38600
O590        O  0.15061837  0.67629619  0.12526227    -0.38600
O591        O  0.12174083  0.77049650  0.40454688    -0.39300
O592        O  0.07085149  0.73192466  0.38895261    -0.39300
O593        O  0.95576495  0.78039577  0.54431263    -0.71100
O594        O  0.03904868  0.85787566  0.54836415    -0.71400
O595        O  0.95750116  0.85999732  0.54781573    -0.71200
O596        O  0.03710599  0.77802179  0.54537187    -0.71200
O597        O  0.03745785  0.78077117  0.96656891    -0.71200
O598        O  0.95678443  0.86131761  0.96862809    -0.71200
O599        O  0.03788898  0.86004358  0.96928857    -0.71100
O600        O  0.95637307  0.78212910  0.96537916    -0.71300
V601        V  0.99739060  0.81910198  0.54500365     1.35200
V602        V  0.99714223  0.82103341  0.96908282     1.35200
C603        C  0.94187061  0.76795313  0.50401960     0.78100
C604        C  0.05229793  0.87238684  0.00919112     0.78200
C605        C  0.94344902  0.87454225  0.00840202     0.78000
C606        C  0.05091234  0.76524777  0.50555468     0.78000
O607        O  0.82375981  0.00638428  0.54379574    -0.71100
O608        O  0.89956941  0.92107537  0.54777763    -0.71400
O609        O  0.90409985  0.00021906  0.54379270    -0.71200
O610        O  0.81824285  0.92806145  0.54900571    -0.71200
O611        O  0.81817503  0.92354884  0.96967511    -0.71200
O612        O  0.90151811  0.99927832  0.96439716    -0.71200
O613        O  0.89928356  0.92007039  0.96847038    -0.71100
O614        O  0.82098429  0.00207113  0.96475360    -0.71300
V615        V  0.86144040  0.96379711  0.54458985     1.35200
V616        V  0.86003944  0.96120433  0.96836527     1.35200
C617        C  0.80933262  0.01866814  0.00319844     0.78100
C618        C  0.91273138  0.90640781  0.00836265     0.78200
C619        C  0.91647317  0.01293893  0.00333265     0.78000
C620        C  0.80361102  0.91367345  0.01010844     0.78000
O621        O  0.96209428  0.13633242  0.96139131    -0.71100
O622        O  0.04053785  0.05446553  0.96519454    -0.71400
O623        O  0.95996802  0.05696552  0.96298870    -0.71200
O624        O  0.04246837  0.13353331  0.96381945    -0.71200
O625        O  0.04062576  0.13601140  0.54298827    -0.71200
O626        O  0.96111414  0.05680563  0.54240436    -0.71200
O627        O  0.04166929  0.05660395  0.54444578    -0.71100
O628        O  0.96027997  0.13599799  0.54064795    -0.71300
V629        V  0.00124541  0.09533681  0.96487043     1.35200
V630        V  0.00091682  0.09629708  0.54109771     1.35200
C631        C  0.94784482  0.15029120  0.00021009     0.78100
C632        C  0.05434734  0.04161567  0.00528897     0.78200
C633        C  0.94710496  0.04338815  0.00261226     0.78000
C634        C  0.05483229  0.14850020  0.00332749     0.78000
O635        O  0.17770493  0.99454476  0.96532521    -0.71100
O636        O  0.09657849  0.91608203  0.96915519    -0.71400
O637        O  0.09710834  0.99530944  0.96687105    -0.71200
O638        O  0.17739312  0.91510487  0.96772562    -0.71200
O639        O  0.17962540  0.91648913  0.54643200    -0.71200
O640        O  0.09883260  0.99656813  0.54598480    -0.71200
O641        O  0.09843451  0.91690828  0.54818698    -0.71100
O642        O  0.17974771  0.99601440  0.54407781    -0.71300
V643        V  0.13725968  0.95524057  0.96886424     1.35200
V644        V  0.13914954  0.95644515  0.54468135     1.35200
C645        C  0.19188806  0.00944780  0.00401261     0.78100
C646        C  0.08370184  0.90299518  0.00911542     0.78200
C647        C  0.08455267  0.00987991  0.00618240     0.78000
C648        C  0.19208730  0.90191405  0.00727199     0.78000
C649        C  0.18043190  0.64221153  0.50454385    -0.01800
C650        C  0.30854155  0.76895357  0.00195618    -0.01800
N651        N  0.50020901  0.77507117  0.68053087    -0.36000
N652        N  0.56193586  0.78263870  0.75568811    -0.56500
N653        N  0.49884332  0.77845430  0.82884759    -0.36000
N654        N  0.43704759  0.76995804  0.75295238    -0.56500
C655        C  0.53419799  0.76736184  0.65527341     0.27600
C656        C  0.46867137  0.76217847  0.65323820     0.27600
C657        C  0.53140900  0.78263954  0.85864495     0.27600
C658        C  0.46577458  0.77632756  0.85714059     0.27600
C659        C  0.58452757  0.79049616  0.71631814     0.36200
C660        C  0.58462870  0.79145401  0.79534658     0.36200
C661        C  0.41332504  0.77062228  0.71263401     0.36200
C662        C  0.41231797  0.77193770  0.79154023     0.36200
C663        C  0.52401391  0.74868401  0.61196757    -0.21200
C664        C  0.48268286  0.74607383  0.61030428    -0.21200
C665        C  0.51871971  0.78336087  0.90658684    -0.21200
C666        C  0.47755572  0.77930271  0.90564666    -0.21200
C667        C  0.62143664  0.80555328  0.73107352    -0.22300
C668        C  0.62216860  0.80459039  0.78084770    -0.22300
C669        C  0.37309739  0.77251569  0.72553924    -0.22300
C670        C  0.37243873  0.77304545  0.77557014    -0.22300
C671        C  0.57357138  0.78050415  0.66788245    -0.17700
C672        C  0.42743750  0.76680360  0.66458407    -0.17700
C673        C  0.42501729  0.77303442  0.84097022    -0.17600
C674        C  0.57224246  0.78711242  0.84430379    -0.17600
H675        H  0.54418933  0.73898235  0.58370070     0.15300
H676        H  0.46500283  0.73380120  0.58069226     0.15300
H677        H  0.53704189  0.78727185  0.93908632     0.15300
H678        H  0.45845713  0.77923229  0.93728411     0.15300
H679        H  0.64593955  0.81551499  0.70870307     0.13500
H680        H  0.64772813  0.81312953  0.80305513     0.13500
H681        H  0.34696792  0.77276983  0.70148649     0.13500
H682        H  0.34565450  0.77440161  0.79761360     0.13500
H683        H  0.49811548  0.79302670  0.71104318     0.26800
H684        H  0.49922623  0.77681764  0.79142610     0.26800
C685        C  0.69134086  0.78190119  0.00628833    -0.01800
C686        C  0.81010500  0.64988989  0.98990056    -0.01800
C687        C  0.31169783  0.13857043  0.49549822    -0.01800
C688        C  0.18383994  0.26629871  0.50107292    -0.01800
N689        N  0.17552387  0.45361053  0.67828560    -0.36000
N690        N  0.17059324  0.51498872  0.75390678    -0.56500
N691        N  0.18314007  0.45471219  0.82773721    -0.36000
N692        N  0.18780524  0.39330007  0.75217889    -0.56500
C693        C  0.17736789  0.48643195  0.65022367     0.27600
C694        C  0.18572286  0.42252607  0.64977014     0.27600
C695        C  0.17468545  0.48605175  0.85662596     0.27600
C696        C  0.18093472  0.42193917  0.85582103     0.27600
C697        C  0.16705953  0.53844898  0.71422686     0.36200
C698        C  0.17058209  0.53896572  0.79329777     0.36200
C699        C  0.18850622  0.36940711  0.71280973     0.36200
C700        C  0.18991069  0.36969159  0.79176156     0.36200
C701        C  0.18836052  0.47585314  0.60339753    -0.21200
C702        C  0.19350545  0.43576809  0.60312426    -0.21200
C703        C  0.16768324  0.47300358  0.90356306    -0.21200
C704        C  0.17143720  0.43277965  0.90304453    -0.21200
C705        C  0.16384530  0.57748928  0.72867802    -0.22300
C706        C  0.16677576  0.57784942  0.77850946    -0.22300
C707        C  0.19121959  0.33042083  0.72746894    -0.22300
C708        C  0.19276036  0.33061407  0.77731806    -0.22300
C709        C  0.17004943  0.52594187  0.66505942    -0.17700
C710        C  0.18780877  0.38223933  0.66376847    -0.17700
C711        C  0.18697014  0.38228251  0.84078663    -0.17600
C712        C  0.17296071  0.52632685  0.84251124    -0.17600
H713        H  0.19290224  0.49504324  0.57250324     0.15300
H714        H  0.20264151  0.41840278  0.57210867     0.15300
H715        H  0.15980285  0.49057285  0.93491302     0.15300
H716        H  0.16705771  0.41368727  0.93407175     0.15300
H717        H  0.16083135  0.60329978  0.70572740     0.13500
H718        H  0.16609416  0.60390379  0.80109436     0.13500
H719        H  0.19215759  0.30442852  0.70478502     0.13500
H720        H  0.19492311  0.30469888  0.80019372     0.13500
H721        H  0.16473768  0.45227619  0.71351128     0.26800
H722        H  0.19299533  0.45580512  0.79211306     0.26800
N723        N  0.50476410  0.13786847  0.82134475    -0.36000
N724        N  0.44151520  0.14502850  0.74661178    -0.56500
N725        N  0.50402531  0.15105964  0.67207022    -0.36000
N726        N  0.56724283  0.14361339  0.74645823    -0.56500
C727        C  0.47197304  0.14012293  0.85045263     0.27600
C728        C  0.53819819  0.13992016  0.85032288     0.27600
C729        C  0.47091255  0.14818170  0.64290337     0.27600
C730        C  0.53671310  0.14817488  0.64312368     0.27600
C731        C  0.41734076  0.14368609  0.78588729     0.36200
C732        C  0.41712995  0.14768519  0.70683587     0.36200
C733        C  0.59184340  0.14117507  0.78597583     0.36200
C734        C  0.59127785  0.14639998  0.70721564     0.36200
C735        C  0.48498772  0.14171582  0.89861756    -0.21200
C736        C  0.52634146  0.14238375  0.89848187    -0.21200
C737        C  0.48292862  0.14515864  0.59477956    -0.21200
C738        C  0.52411266  0.14449242  0.59503113    -0.21200
C739        C  0.37727215  0.14593271  0.77080149    -0.22300
C740        C  0.37714411  0.14799931  0.72094736    -0.22300
C741        C  0.63180265  0.14170370  0.77148893    -0.22300
C742        C  0.63142105  0.14559499  0.72187164    -0.22300
C743        C  0.43057274  0.14150734  0.83530533    -0.17700
C744        C  0.57924024  0.14018500  0.83517460    -0.17700
C745        C  0.57782164  0.14857571  0.65812849    -0.17600
C746        C  0.43000690  0.14817176  0.65777397    -0.17600
H747        H  0.46682557  0.14293375  0.93096680     0.15300
H748        H  0.54532492  0.14480007  0.93063959     0.15300
H749        H  0.46425807  0.14337052  0.56230491     0.15300
H750        H  0.54254304  0.14127284  0.56306055     0.15300
H751        H  0.35068472  0.14618523  0.79319334     0.13500
H752        H  0.35049020  0.14948961  0.69784312     0.13500
H753        H  0.65866089  0.13985950  0.79419979     0.13500
H754        H  0.65783016  0.14734900  0.69927735     0.13500
H755        H  0.50446475  0.13322184  0.78440374     0.26800
H756        H  0.50420771  0.15735099  0.70869876     0.26800
C757        C  0.69625615  0.15521146  0.49907972    -0.01800
C758        C  0.82664750  0.27792310  0.99275939    -0.01800
N759        N  0.80947796  0.46195331  0.66672544    -0.36000
N760        N  0.80907044  0.52511303  0.73827791    -0.56500
N761        N  0.81345815  0.46582976  0.81516253    -0.36000
N762        N  0.81331596  0.40276116  0.74368960    -0.56500
C763        C  0.81603769  0.49335042  0.63743379     0.27600
C764        C  0.81774055  0.42931098  0.64029838     0.27600
C765        C  0.80637441  0.49849195  0.84208491     0.27600
C766        C  0.80915485  0.43433464  0.84501880     0.27600
C767        C  0.80837878  0.54778492  0.69786988     0.36200
C768        C  0.80892136  0.54990707  0.77663430     0.36200
C769        C  0.81317525  0.37798566  0.70532022     0.36200
C770        C  0.81498025  0.38001901  0.78402295     0.36200
C771        C  0.82811241  0.48044366  0.59201670    -0.21200
C772        C  0.82922294  0.44022943  0.59384409    -0.21200
C773        C  0.79784329  0.48748709  0.88948282    -0.21200
C774        C  0.79960394  0.44720154  0.89133516    -0.21200
C775        C  0.80723755  0.58727142  0.71061278    -0.22300
C776        C  0.80827317  0.58862516  0.76046834    -0.22300
C777        C  0.81416004  0.33926121  0.72138495    -0.22300
C778        C  0.81616010  0.34056019  0.77113961    -0.22300
C779        C  0.81153802  0.53357632  0.64974508    -0.17700
C780        C  0.81491367  0.38966649  0.65604308    -0.17700
C781        C  0.81367748  0.39409130  0.83236336    -0.17600
C782        C  0.80800532  0.53821210  0.82602093    -0.17600
H783        H  0.83597497  0.49816186  0.56080661     0.15300
H784        H  0.83798693  0.42124189  0.56423046     0.15300
H785        H  0.79082541  0.50648845  0.91976985     0.15300
H786        H  0.79399938  0.42939886  0.92322083     0.15300
H787        H  0.80667912  0.61257552  0.68662563     0.13500
H788        H  0.80823428  0.61518388  0.78216759     0.13500
H789        H  0.81428872  0.31270144  0.69969744     0.13500
H790        H  0.81776837  0.31517036  0.79493404     0.13500
H791        H  0.79659874  0.46260944  0.70093886     0.26800
H792        H  0.82428769  0.46525110  0.77995446     0.26800
C793        C  0.79304239  0.33176414  0.54152209    -0.11600
C794        C  0.82640551  0.30543890  0.53869078     0.05400
C795        C  0.85633103  0.30782312  0.57699576    -0.06900
C796        C  0.85087667  0.33443592  0.61535417    -0.07700
C797        C  0.81675640  0.35863437  0.61796751    -0.02200
C798        C  0.78719348  0.35674145  0.58105549     0.04600
N799        N  0.75118303  0.38036202  0.58309000     0.67100
H800        H  0.76978225  0.33130417  0.51347960     0.16000
H801        H  0.87441561  0.33723477  0.64288393     0.15700
N802        N  0.89365847  0.28625544  0.57743678     0.74800
O803        O  0.73809136  0.39788074  0.54546848    -0.38600
O804        O  0.73077996  0.38144756  0.62152957    -0.38600
O805        O  0.92086269  0.29510261  0.54779437    -0.39300
O806        O  0.90325943  0.26624460  0.61464308    -0.39300
C807        C  0.78963959  0.30974101  0.91849061    -0.11600
C808        C  0.82468433  0.30764167  0.94884273     0.05400
C809        C  0.85382275  0.33820020  0.94217411    -0.06900
C810        C  0.84991986  0.36461833  0.90320728    -0.07700
C811        C  0.81597185  0.36475946  0.87271273    -0.02200
C812        C  0.78476510  0.33798692  0.88156141     0.04600
N813        N  0.74749309  0.33976298  0.85427041     0.67100
H814        H  0.76407539  0.29102062  0.92468624     0.16000
H815        H  0.87298957  0.38666737  0.89801960     0.15700
N816        N  0.88558018  0.34589711  0.97654937     0.74800
O817        O  0.72962659  0.30845870  0.84228658    -0.38600
O818        O  0.73059389  0.37250910  0.84559820    -0.38600
O819        O  0.92158552  0.34186517  0.96307988    -0.39300
O820        O  0.87864135  0.37051068  0.00979694    -0.39300
C821        C  0.75354111  0.19159632  0.96128948    -0.11600
C822        C  0.72563654  0.19110340  0.49960973     0.05400
C823        C  0.73045957  0.22085797  0.53616866    -0.06900
C824        C  0.76193092  0.24803943  0.03249386    -0.07700
C825        C  0.78879030  0.24954063  0.99281796    -0.02200
C826        C  0.78330281  0.22007582  0.95657174     0.04600
N827        N  0.80871272  0.21678064  0.91513541     0.67100
H828        H  0.75170081  0.16950788  0.93296350     0.16000
H829        H  0.76646968  0.26652260  0.56400073     0.15700
N830        N  0.70623965  0.22392840  0.57903909     0.74800
O831        O  0.83364643  0.18819791  0.41402914    -0.38600
O832        O  0.79645448  0.23144299  0.87534346    -0.38600
O833        O  0.70909476  0.19797661  0.61174868    -0.39300
O834        O  0.69251855  0.25724137  0.09081289    -0.39300
C835        C  0.63443616  0.17675175  0.87733592    -0.11600
C836        C  0.61135683  0.14253093  0.87387270     0.05400
C837        C  0.61748948  0.11244090  0.90847126    -0.06900
C838        C  0.64393258  0.11888666  0.94785156    -0.07700
C839        C  0.66820432  0.15310693  0.95214544    -0.02200
C840        C  0.66333456  0.18224149  0.91442725     0.04600
N841        N  0.68563895  0.21815983  0.91231740     0.67100
H842        H  0.62966218  0.19998027  0.85070655     0.16000
H843        H  0.64701749  0.09579628  0.97488046     0.15700
N844        N  0.59710759  0.07529241  0.90418413     0.74800
O845        O  0.70594410  0.22526951  0.87480944    -0.38600
O846        O  0.67664374  0.24639344  0.93994650    -0.38600
O847        O  0.59193717  0.05959715  0.86296500    -0.39300
O848        O  0.58783306  0.05617902  0.94181217    -0.39300
C849        C  0.60985206  0.18282387  0.58863659    -0.11600
C850        C  0.60861961  0.14984357  0.61901342     0.05400
C851        C  0.63368155  0.11738614  0.60889162    -0.06900
C852        C  0.66188807  0.12011007  0.57150746    -0.07700
C853        C  0.66532108  0.15414301  0.54175919    -0.02200
C854        C  0.63531199  0.18409645  0.54845997     0.04600
N855        N  0.62715440  0.21412440  0.51306272     0.67100
H856        H  0.58855418  0.20672925  0.59411610     0.16000
H857        H  0.67912510  0.09380049  0.56418059     0.15700
N858        N  0.62959461  0.08081158  0.63465603     0.74800
O859        O  0.60086390  0.20704043  0.48066229    -0.38600
O860        O  0.63262028  0.24934258  0.02458994    -0.38600
O861        O  0.59513296  0.06611833  0.64069048    -0.39300
O862        O  0.66052487  0.06093526  0.64647114    -0.39300
C863        C  0.15371575  0.32664460  0.88270186    -0.11600
C864        C  0.18700823  0.35135650  0.87931918     0.05400
C865        C  0.21810091  0.34852834  0.91438329    -0.06900
C866        C  0.21491818  0.32133989  0.95240095    -0.07700
C867        C  0.18240970  0.29458483  0.95580770    -0.02200
C868        C  0.15054256  0.29842570  0.91969507     0.04600
N869        N  0.11443510  0.27518562  0.91864506     0.67100
H870        H  0.12928593  0.32979872  0.85631444     0.16000
H871        H  0.23919176  0.32008393  0.97914668     0.15700
N872        N  0.25302100  0.37320549  0.91200331     0.74800
O873        O  0.10515909  0.25704624  0.88004171    -0.38600
O874        O  0.08688109  0.28202623  0.94867738    -0.38600
O875        O  0.26781232  0.38799265  0.95034413    -0.39300
O876        O  0.27107646  0.37772985  0.87225010    -0.39300
C877        C  0.15399763  0.34936302  0.59401920    -0.11600
C878        C  0.18810030  0.35201908  0.62396730     0.05400
C879        C  0.22135719  0.32722880  0.61445718    -0.06900
C880        C  0.21900875  0.29975052  0.57608938    -0.07700
C881        C  0.18402376  0.29556831  0.54602616    -0.02200
C882        C  0.15197093  0.32312779  0.55485542     0.04600
N883        N  0.11745748  0.32696050  0.52358285     0.67100
H884        H  0.12876128  0.36915594  0.60013597     0.16000
H885        H  0.24589718  0.28266400  0.56915828     0.15700
N886        N  0.25803297  0.33000809  0.64262337     0.74800
O887        O  0.08364240  0.31676374  0.53984380    -0.38600
O888        O  0.11781838  0.35329917  0.99114451    -0.38600
O889        O  0.27740394  0.29920912  0.65432543    -0.39300
O890        O  0.27260140  0.36321922  0.65318348    -0.39300
C891        C  0.24913774  0.23596824  0.96294185    -0.11600
C892        C  0.22214622  0.23829677  0.50236136     0.05400
C893        C  0.22697634  0.20892711  0.53915154    -0.06900
C894        C  0.25641113  0.17956998  0.53499977    -0.07700
C895        C  0.28207797  0.17556553  0.49474842    -0.02200
C896        C  0.27658712  0.20438689  0.95704880     0.04600
N897        N  0.29415468  0.20058186  0.40987726     0.67100
H898        H  0.24584500  0.25560852  0.93230031     0.16000
H899        H  0.25789427  0.15820972  0.56373106     0.15700
N900        N  0.19943330  0.20529058  0.07876100     0.74800
O901        O  0.28259148  0.17324737  0.88206994    -0.38600
O902        O  0.31228785  0.22959029  0.39171793    -0.38600
O903        O  0.17805911  0.17471935  0.08124409    -0.39300
O904        O  0.20532128  0.22501112  0.61701197    -0.39300
C905        C  0.39613103  0.11209387  0.59040483    -0.11600
C906        C  0.39865758  0.14625570  0.61847111     0.05400
C907        C  0.37398724  0.17876075  0.60636302    -0.06900
C908        C  0.34569253  0.17552082  0.56816174    -0.07700
C909        C  0.34228115  0.14090136  0.53940159    -0.02200
C910        C  0.37084125  0.11011753  0.54944251     0.04600
N911        N  0.37621639  0.07719776  0.51775779     0.67100
H912        H  0.41630045  0.08758416  0.59839870     0.16000
H913        H  0.32833611  0.20166200  0.55954893     0.15700
N914        N  0.37826531  0.21567413  0.63130681     0.74800
O915        O  0.40388339  0.07902889  0.48675064    -0.38600
O916        O  0.36497562  0.04358826  0.03242614    -0.38600
O917        O  0.41281453  0.23013672  0.63852704    -0.39300
O918        O  0.34743803  0.23585861  0.64159177    -0.39300
C919        C  0.37345605  0.10919768  0.87813990    -0.11600
C920        C  0.39884260  0.14171042  0.87394207     0.05400
C921        C  0.39453312  0.17298894  0.90716046    -0.06900
C922        C  0.36711484  0.16951102  0.94548494    -0.07700
C923        C  0.34011324  0.13738360  0.95002470    -0.02200
C924        C  0.34396551  0.10661588  0.91435158     0.04600
N925        N  0.31969458  0.07194637  0.91323854     0.67100
H926        H  0.37672612  0.08505720  0.85267999     0.16000
H927        H  0.36523365  0.19362256  0.97110499     0.15700
N928        N  0.41757849  0.20854494  0.90247178     0.74800
O929        O  0.29917434  0.06470773  0.87529947    -0.38600
O930        O  0.32741939  0.04407308  0.94232793    -0.38600
O931        O  0.42462808  0.22271946  0.86096645    -0.39300
O932        O  0.42791503  0.22779072  0.93983160    -0.39300
C933        C  0.77761760  0.62204726  0.91027086    -0.11600
C934        C  0.81108148  0.62387077  0.94299587     0.05400
C935        C  0.84358716  0.59678795  0.93480627    -0.06900
C936        C  0.84213695  0.57094903  0.89532342    -0.07700
C937        C  0.80858127  0.56924982  0.86422962    -0.02200
C938        C  0.77579136  0.59492374  0.87188305     0.04600
N939        N  0.73953803  0.59249105  0.84279839     0.67100
H940        H  0.75048819  0.63878552  0.91657584     0.16000
H941        H  0.86709843  0.55069453  0.88990600     0.17300
N942        N  0.87730657  0.59283242  0.96773023     0.74800
O943        O  0.72404279  0.55945773  0.83338274    -0.38600
O944        O  0.72074878  0.62349285  0.83053471    -0.38600
O945        O  0.88324407  0.56021158  0.98884087    -0.39300
O946        O  0.90603962  0.61691278  0.96577535    -0.39300
C947        C  0.84483230  0.61461192  0.56404045    -0.11600
C948        C  0.81125475  0.61844411  0.53174550     0.05400
C949        C  0.78016237  0.58959306  0.53627355    -0.06900
C950        C  0.78071397  0.56331216  0.57551711    -0.07700
C951        C  0.81260830  0.56258058  0.60921639    -0.02200
C952        C  0.84583888  0.58732645  0.60223396     0.04600
N953        N  0.88138286  0.58430653  0.63256857     0.67100
H954        H  0.87222766  0.63071873  0.55831356     0.16000
H955        H  0.75619801  0.54259305  0.57923359     0.15700
N956        N  0.74878569  0.58482352  0.50039221     0.74800
O957        O  0.89635191  0.55099686  0.64290721    -0.38600
O958        O  0.90019845  0.61496850  0.64501799    -0.38600
O959        O  0.71721513  0.60565229  0.50220341    -0.39300
O960        O  0.74793073  0.55348033  0.47580183    -0.39300
C961        C  0.71419775  0.71061241  0.53209072    -0.11600
C962        C  0.71409976  0.74163407  0.99793152     0.05400
C963        C  0.73746627  0.73491477  0.95552557    -0.06900
C964        C  0.76517447  0.70382647  0.95430928    -0.07700
C965        C  0.77189881  0.67767322  0.99340236    -0.02200
C966        C  0.74499370  0.68176876  0.53363226     0.04600
N967        N  0.74930600  0.66018898  0.57835045     0.67100
H968        H  0.69236290  0.70987790  0.56055521     0.16000
H969        H  0.78313080  0.70127698  0.92232322     0.15700
N970        N  0.73653964  0.76102192  0.91454847     0.74800
O971        O  0.71917493  0.64231692  0.59498864    -0.38600
O972        O  0.77780937  0.66857956  0.60728817    -0.38600
O973        O  0.76780763  0.78042475  0.90500037    -0.39300
O974        O  0.71159572  0.75438605  0.88049087    -0.39300
C975        C  0.64312190  0.76709316  0.63497447    -0.11600
C976        C  0.60439947  0.78344573  0.62840109     0.05400
C977        C  0.59574208  0.80333186  0.58437169    -0.06900
C978        C  0.62332828  0.80110800  0.54633726    -0.07700
C979        C  0.66219475  0.78319995  0.55154737    -0.02200
C980        C  0.67313631  0.77186023  0.59989168     0.04600
N981        N  0.71430182  0.76812980  0.61558597     0.67100
H982        H  0.65115186  0.75309462  0.66921159     0.16000
H983        H  0.61464332  0.81630520  0.51326425     0.15700
N984        N  0.55956438  0.82659843  0.57788950     0.74800
O985        O  0.73485812  0.79912425  0.61959886    -0.38600
O986        O  0.72505926  0.73829436  0.64012019    -0.38600
O987        O  0.54706432  0.84823102  0.61192158    -0.39300
O988        O  0.54242249  0.82881217  0.53665078    -0.39300
C989        C  0.62731394  0.81950153  0.89289820    -0.11600
C990        C  0.60394993  0.78616594  0.88342477     0.05400
C991        C  0.60991157  0.75231437  0.91229004    -0.06900
C992        C  0.63747649  0.75343129  0.95111903    -0.07700
C993        C  0.66345134  0.78587137  0.95972395    -0.02200
C994        C  0.65875775  0.81906757  0.92768550     0.04600
N995        N  0.68526266  0.85213882  0.92757252     0.67100
H996        H  0.62229641  0.84578391  0.87115676     0.16000
H997        H  0.63934584  0.72786260  0.97468138     0.15700
N998        N  0.58776729  0.71673641  0.90313324     0.74800
O999        O  0.72120700  0.84758177  0.91413468    -0.38600
O1000       O  0.67049729  0.88652190  0.92816733    -0.38600
O1001       O  0.58339717  0.70403852  0.86024031    -0.39300
O1002       O  0.57563701  0.69605068  0.93816953    -0.39300
C1003       C  0.37553611  0.80703536  0.89412224    -0.11600
C1004       C  0.39351004  0.77200771  0.87896202     0.05400
C1005       C  0.38419061  0.73693999  0.90287379    -0.06900
C1006       C  0.35684572  0.73726931  0.94106927    -0.07700
C1007       C  0.33629682  0.77177337  0.95609532    -0.02200
C1008       C  0.34808085  0.80787744  0.93261030     0.04600
N1009       N  0.33463171  0.84617151  0.94739972     0.67100
H1010       H  0.38397441  0.83443173  0.87680901     0.16000
H1011       H  0.35107432  0.70953092  0.95826197     0.15700
N1012       N  0.40301787  0.70068352  0.88931272     0.74800
O1013       O  0.35907573  0.86751883  0.97084017    -0.38600
O1014       O  0.30804550  0.86327760  0.92159465    -0.38600
O1015       O  0.43436315  0.68899623  0.91168977    -0.39300
O1016       O  0.38539342  0.67796818  0.85974423    -0.39300
C1017       C  0.36010800  0.80124626  0.56015795    -0.11600
C1018       C  0.34002919  0.76652224  0.54516218     0.05400
C1019       C  0.35537390  0.73064826  0.56628328    -0.06900
C1020       C  0.38210227  0.73152986  0.60634380    -0.07700
C1021       C  0.39759995  0.76687645  0.62372430    -0.02200
C1022       C  0.38741937  0.80187280  0.59942630     0.04600
N1023       N  0.40489586  0.83839471  0.61415718     0.67100
H1024       H  0.35331887  0.82888793  0.54287747     0.16000
H1025       H  0.39217166  0.70408331  0.62282525     0.15700
N1026       N  0.34698112  0.69277165  0.54654369     0.74800
O1027       O  0.43432240  0.85221857  0.59120026    -0.38600
O1028       O  0.39252863  0.85565859  0.65180335    -0.38600
O1029       O  0.37555505  0.67378900  0.52745520    -0.39300
O1030       O  0.31881520  0.67351846  0.56495333    -0.39300
C1031       C  0.27180908  0.70855617  0.96200255    -0.11600
C1032       C  0.27873105  0.73283517  0.00304413     0.05400
C1033       C  0.25232816  0.72661244  0.54269863    -0.06900
C1034       C  0.22253460  0.69755779  0.54063619    -0.07700
C1035       C  0.21741564  0.67122128  0.50156521    -0.02200
C1036       C  0.24221724  0.67886167  0.96025069     0.04600
N1037       N  0.23620394  0.66033509  0.91378027     0.67100
H1038       H  0.28653008  0.71468416  0.92813680     0.16000
H1039       H  0.20285066  0.69544727  0.57125536     0.15700
N1040       N  0.25370102  0.75060374  0.58554616     0.74800
O1041       O  0.20760609  0.67193111  0.88653959    -0.38600
O1042       O  0.26577693  0.64333421  0.89412956    -0.38600
O1043       O  0.22219700  0.77026597  0.09673316    -0.39300
O1044       O  0.28014841  0.74371576  0.61792262    -0.39300
C1045       C  0.14641435  0.58754973  0.55189305    -0.11600
C1046       C  0.18011459  0.61321236  0.54939882     0.05400
C1047       C  0.21024051  0.60836220  0.58697527    -0.06900
C1048       C  0.20502246  0.58080788  0.62428693    -0.07700
C1049       C  0.17112580  0.55700148  0.62654510    -0.02200
C1050       C  0.14142043  0.56027283  0.58979915     0.04600
N1051       N  0.10597945  0.53626237  0.59054449     0.67100
H1052       H  0.12258728  0.58980674  0.52469379     0.16000
H1053       H  0.22872465  0.57711654  0.65155082     0.15700
N1054       N  0.24794561  0.62806579  0.58790780     0.74800
O1055       O  0.08641722  0.53230705  0.62932412    -0.38600
O1056       O  0.09261078  0.52106043  0.55171547    -0.38600
O1057       O  0.25388907  0.65265874  0.62164595    -0.39300
O1058       O  0.27803459  0.60927316  0.57232882    -0.39300
C1059       C  0.14351222  0.60943735  0.93031251    -0.11600
C1060       C  0.17871746  0.61317707  0.95998896     0.05400
C1061       C  0.21024609  0.58513802  0.95147605    -0.06900
C1062       C  0.20794094  0.55896267  0.91217439    -0.07700
C1063       C  0.17359793  0.55666719  0.88233438    -0.02200
C1064       C  0.14041179  0.58139682  0.89261209     0.04600
N1065       N  0.10274947  0.57726925  0.86669470     0.67100
H1066       H  0.11664564  0.62618501  0.93820273     0.16000
H1067       H  0.23291406  0.53886812  0.90606236     0.15700
N1068       N  0.24384903  0.58047140  0.98410579     0.74800
O1069       O  0.08868234  0.54349966  0.85800596    -0.38600
O1070       O  0.08155131  0.60728845  0.85662687    -0.38600
O1071       O  0.24448028  0.55078971  0.01183973    -0.39300
O1072       O  0.27690594  0.59642860  0.97377819    -0.39300
C1073       C  0.22361206  0.84434858  0.46631119    -0.11600
C1074       C  0.22221390  0.86931531  0.00699825     0.05400
C1075       C  0.24784365  0.86105183  0.04700772    -0.06900
C1076       C  0.27471968  0.82906343  0.04531140    -0.07700
C1077       C  0.27845464  0.80486453  0.00354867    -0.02200
C1078       C  0.25026604  0.81218445  0.46435311     0.04600
N1079       N  0.24698084  0.78693665  0.42278760     0.67100
H1080       H  0.20305120  0.84929861  0.43587874     0.16000
H1081       H  0.29121596  0.82268700  0.07847013     0.15700
N1082       N  0.24697752  0.88471213  0.09001327     0.74800
O1083       O  0.21462106  0.76822375  0.41600624    -0.38600
O1084       O  0.26945057  0.79161797  0.88752677    -0.38600
O1085       O  0.23739443  0.86897567  0.63016860    -0.39300
O1086       O  0.26154402  0.91895600  0.08948972    -0.39300
C1087       C  0.25336432  0.09772900  0.46251544    -0.11600
C1088       C  0.28213228  0.10256462  0.50053396     0.05400
C1089       C  0.27685892  0.07780294  0.04300682    -0.06900
C1090       C  0.24796988  0.04761376  0.04204927    -0.07700
C1091       C  0.22187221  0.04190408  0.00238032    -0.02200
C1092       C  0.22426679  0.06792982  0.46243453     0.04600
N1093       N  0.19628176  0.06570111  0.42235517     0.67100
H1094       H  0.25385028  0.11740723  0.43162816     0.16000
H1095       H  0.24520006  0.02884153  0.07375547     0.15700
N1096       N  0.29767818  0.08318745  0.08876593     0.74800
O1097       O  0.15903785  0.07065036  0.42935716    -0.38600
O1098       O  0.20937343  0.06196636  0.87958964    -0.38600
O1099       O  0.28937925  0.11213138  0.61483073    -0.39300
O1100       O  0.31426888  0.05375174  0.10904612    -0.39300
C1101       C  0.92037751  0.21086097  0.96088113    -0.11600
C1102       C  0.91827274  0.18312137  0.99852734     0.05400
C1103       C  0.88909568  0.18798728  0.53467990    -0.06900
C1104       C  0.86254023  0.21996617  0.53174732    -0.07700
C1105       C  0.86289844  0.24812786  0.99323169    -0.02200
C1106       C  0.89333311  0.24290261  0.95699823     0.04600
N1107       N  0.89733538  0.26753245  0.91485596     0.67100
H1108       H  0.94312895  0.20720269  0.93325658     0.16000
H1109       H  0.84002182  0.22245346  0.55979766     0.15700
N1110       N  0.88431472  0.15978769  0.57310679     0.74800
O1111       O  0.93195384  0.27996538  0.90429103    -0.38600
O1112       O  0.87127345  0.26567884  0.88113056    -0.38600
O1113       O  0.87885677  0.17140613  0.61614993    -0.39300
O1114       O  0.87933697  0.12375951  0.06271036    -0.39300
C1115       C  0.11393327  0.17871580  0.96584121    -0.11600
C1116       C  0.08587916  0.17921317  0.00305040     0.05400
C1117       C  0.08939544  0.20757912  0.54016725    -0.06900
C1118       C  0.12027810  0.23535254  0.53872813    -0.07700
C1119       C  0.14828210  0.23651639  0.50028956    -0.02200
C1120       C  0.14537822  0.20575983  0.96423502     0.04600
N1121       N  0.17549289  0.19887280  0.92800307     0.67100
H1122       H  0.11236461  0.15596470  0.93823915     0.16000
H1123       H  0.12285443  0.25468704  0.56963173     0.15700
N1124       N  0.06163179  0.20872716  0.57949451     0.74800
O1125       O  0.19080940  0.16488009  0.42438420    -0.38600
O1126       O  0.18027586  0.22288507  0.89357546    -0.38600
O1127       O  0.07207412  0.19547028  0.62072855    -0.39300
O1128       O  0.02748315  0.22534290  0.07343010    -0.39300
C1129       C  0.79018646  0.84443758  0.01042741    -0.11600
C1130       C  0.77438801  0.88201839  0.01267304     0.05400
C1131       C  0.73328630  0.88751813  0.52236505    -0.06900
C1132       C  0.70797320  0.85440227  0.52400011    -0.07700
C1133       C  0.72261561  0.81586067  0.01436297    -0.02200
C1134       C  0.76586723  0.81147807  0.01402695     0.04600
N1135       N  0.78729030  0.77506354  0.52106004     0.67100
H1136       H  0.82265838  0.84059379  0.00812334     0.16000
H1137       H  0.67598689  0.85949148  0.52816724     0.15700
N1138       N  0.71651771  0.92635396  0.02765794     0.74800
O1139       O  0.81606326  0.76758643  0.99261629    -0.38600
O1140       O  0.78681776  0.75838570  0.56205456    -0.38600
O1141       O  0.72514361  0.95330541  0.99794037    -0.39300
O1142       O  0.69014710  0.93289485  0.55940392    -0.39300
C1143       C  0.77696099  0.07660270  0.54208454    -0.11600
C1144       C  0.78025859  0.05212069  0.50156773     0.05400
C1145       C  0.75799049  0.06197646  0.95886327    -0.06900
C1146       C  0.73179284  0.09451488  0.95874106    -0.07700
C1147       C  0.72615099  0.11852770  0.50068094    -0.02200
C1148       C  0.75194764  0.10998440  0.54162716     0.04600
N1149       N  0.75460878  0.13510510  0.58307310     0.67100
H1150       H  0.79539834  0.07083253  0.57422112     0.16000
H1151       H  0.71696899  0.10127383  0.92448489     0.15700
N1152       N  0.76197960  0.03971360  0.91504233     0.74800
O1153       O  0.74159371  0.12252506  0.62313193    -0.38600
O1154       O  0.78209442  0.16070512  0.08361871    -0.38600
O1155       O  0.74444794  0.00690459  0.41106341    -0.39300
O1156       O  0.77989650  0.05438909  0.87914247    -0.39300
C1157       C  0.85539716  0.69894802  0.03585416    -0.11600
C1158       C  0.84658117  0.67969274  0.99125016     0.05400
C1159       C  0.86856462  0.69345353  0.44976741    -0.06900
C1160       C  0.89942342  0.72132437  0.45568042    -0.07700
C1161       C  0.90921165  0.73783821  0.00092185    -0.02200
C1162       C  0.88676923  0.72613526  0.04149189     0.04600
N1163       N  0.89415632  0.74259241  0.08860314     0.67100
H1164       H  0.83775250  0.69266460  0.06751731     0.16000
H1165       H  0.91543532  0.73071763  0.42360309     0.15700
N1166       N  0.85939318  0.68211126  0.40060499     0.74800
O1167       O  0.88191812  0.77698190  0.09804137    -0.38600
O1168       O  0.91000574  0.72069789  0.62184470    -0.38600
O1169       O  0.84070719  0.70620422  0.87358302    -0.39300
O1170       O  0.88241533  0.65759692  0.38027871    -0.39300
C1171       C  0.08991334  0.71092227  0.54710387    -0.11600
C1172       C  0.08196386  0.73293870  0.50483018     0.05400
C1173       C  0.10461283  0.72420138  0.96321610    -0.06900
C1174       C  0.13502743  0.69534672  0.96520347    -0.07700
C1175       C  0.14296518  0.67160918  0.50669279    -0.02200
C1176       C  0.11947773  0.68088258  0.54903525     0.04600
N1177       N  0.12523540  0.66208291  0.59535400     0.67100
H1178       H  0.07313200  0.71730757  0.57976671     0.16000
H1179       H  0.15213571  0.69091398  0.93281619     0.15700
N1180       N  0.09744855  0.74442999  0.91825457     0.74800
O1181       O  0.09702356  0.64134642  0.61178817    -0.38600
O1182       O  0.15067143  0.67599239  0.62512901    -0.38600
O1183       O  0.12183279  0.77036352  0.90435182    -0.39300
O1184       O  0.07071866  0.73199285  0.88909203    -0.39300
loop_ 
_geom_bond_atom_site_label_1 
_geom_bond_atom_site_label_2 
_geom_bond_distance 
_geom_bond_site_symmetry_2 
_ccdc_geom_bond_type 
O1            V9   1.912       .  S
O1           C11   1.268       .  A
O2            V9   1.916   1_455  S
O2          C604   1.267       .  A
O3            V9   1.914       .  S
O3          C605   1.266       .  A
O4            V9   1.912   1_455  S
O4           C14   1.268       .  A
O5           V10   1.908   1_455  S
O5          C606   1.266       .  A
O6           V10   1.907       .  S
O6           C13   1.266       .  A
O7           V10   1.898   1_455  S
O7           C12   1.263       .  A
O8           V10   1.898       .  S
O8          C603   1.264       .  A
V9          V602   2.084   1_554  T
V10         V601   2.084       .  T
C11         O600   1.265   1_554  A
C11        C1161   1.495       .  S
C12         O594   1.267       .  A
C12          C54   1.476       .  S
C13         O595   1.266       .  A
C13          C26   1.481       .  S
C14         O597   1.266   1_554  A
C14         C580   1.500       .  S
O15          V23   1.904   1_545  S
O15         C617   1.268       .  A
O16          V23   1.919       .  S
O16         C618   1.269       .  A
O17          V23   1.885   1_545  S
O17         C619   1.261       .  A
O18          V23   1.888       .  S
O18         C620   1.259       .  A
O19          V24   1.894       .  S
O19          C28   1.263       .  A
O20          V24   1.898       .  S
O20          C27   1.263   1_565  A
O21          V24   1.902       .  S
O21          C26   1.264       .  A
O22          V24   1.893   1_545  S
O22          C25   1.262       .  A
V23         V616   2.088   1_554  T
V24         V615   2.088       .  T
C25         O607   1.268       .  A
C25        C1144   1.486       .  S
C26         O608   1.269       .  A
C27         O609   1.261       .  A
C27          C41   1.455       .  S
C28         O610   1.259       .  A
C28         C538   1.454       .  S
O29          V37   1.898   1_655  S
O29          C39   1.264       .  A
O30          V37   1.896       .  S
O30          C40   1.263       .  A
O31          V37   1.896   1_655  S
O31          C41   1.262       .  A
O32          V37   1.891       .  S
O32          C42   1.264       .  A
O33          V38   1.891       .  S
O33         C634   1.262       .  A
O34          V38   1.888   1_655  S
O34         C633   1.262       .  A
O35          V38   1.903       .  S
O35         C632   1.265       .  A
O36          V38   1.899   1_655  S
O36         C631   1.265       .  A
V37         V630   2.088       .  T
V38         V629   2.088   1_554  T
C39         O628   1.265       .  A
C39         C510   1.480       .  S
C40         O627   1.265       .  A
C40          C55   1.466       .  S
C41         O626   1.262       .  A
C42         O625   1.262       .  A
C42         C524   1.470       .  S
O43          V51   1.902       .  S
O43          C53   1.264   1_565  A
O44          V51   1.900       .  S
O44          C54   1.265       .  A
O45          V51   1.897       .  S
O45          C55   1.263   1_565  A
O46          V51   1.899       .  S
O46          C56   1.265       .  A
O47          V52   1.903       .  S
O47         C648   1.265       .  A
O48          V52   1.903       .  S
O48         C647   1.264   1_565  A
O49          V52   1.913       .  S
O49         C646   1.266       .  A
O50          V52   1.908       .  S
O50         C645   1.267   1_565  A
V51         V644   2.086       .  T
V52         V643   2.086   1_554  T
C53         O642   1.267   1_545  A
C53         C499   1.490       .  S
C54         O641   1.266       .  A
C55         O640   1.264   1_545  A
C56         O639   1.265       .  A
C56         C482   1.486       .  S
C57         C443   1.582       .  S
C57         C454   1.577       .  S
C57         C583   1.590       .  S
C57        C1060   1.579   1_554  S
C58         C415   1.574       .  S
C58         C440   1.580       .  S
C58         C485   1.571       .  S
C58        C1018   1.577       .  S
N59          C64   1.354       .  A
N59          C63   1.356       .  A
N59          H91   1.040       .  S
N60          C67   1.351       .  A
N60          C68   1.351       .  A
N61          C66   1.355       .  A
N61          C65   1.355       .  A
N61          H92   1.030       .  S
N62          C69   1.350       .  A
N62          C70   1.351       .  A
C63          C71   1.388       .  A
C63          C79   1.421       .  A
C64          C80   1.414       .  A
C64          C72   1.386       .  A
C65          C73   1.389       .  A
C65          C82   1.424       .  A
C66          C81   1.422       .  A
C66          C74   1.388       .  A
C67          C79   1.417       .  A
C67          C75   1.385       .  A
C68          C82   1.420       .  A
C68          C76   1.388       .  A
C69          C77   1.386       .  A
C69          C80   1.412       .  A
C70          C78   1.388       .  A
C70          C81   1.417       .  A
C71          C72   1.374       .  A
C71          H83   1.082       .  S
C72          H84   1.082       .  S
C73          C74   1.373       .  A
C73          H85   1.082       .  S
C74          H86   1.082       .  S
C75          C76   1.368       .  A
C75          H87   1.081       .  S
C76          H88   1.079       .  S
C77          C78   1.375       .  A
C77          H89   1.083       .  S
C78          H90   1.082       .  S
C79         C384   1.504       .  S
C80         C429   1.486       .  S
C81         C412   1.487       .  S
C82         C398   1.494       .  S
C93         C370   1.576       .  S
C93         C401   1.574       .  S
C93         C541   1.570       .  S
C93         C979   1.586       .  S
C94         C342   1.564       .  S
C94         C373   1.578       .  S
C94         C566   1.582       .  S
C94         C948   1.566       .  S
C95         C303   1.589       .  S
C95         C317   1.568   1_556  S
C95         C496   1.579   1_556  S
C95         C923   1.580       .  S
C96         C289   1.587       .  S
C96         C300   1.581       .  S
C96         C527   1.558       .  S
C96         C867   1.569   1_554  S
N97         C102   1.359       .  A
N97         C101   1.356       .  A
N97         H129   1.038       .  S
N98         C105   1.353       .  A
N98         C106   1.355       .  A
N99         C104   1.356       .  A
N99         C103   1.359       .  A
N99         H130   1.037       .  S
N100        C107   1.354       .  A
N100        C108   1.351       .  A
C101        C109   1.389       .  A
C101        C117   1.423       .  A
C102        C118   1.421       .  A
C102        C110   1.386       .  A
C103        C111   1.386       .  A
C103        C120   1.421       .  A
C104        C119   1.423       .  A
C104        C112   1.389       .  A
C105        C117   1.422       .  A
C105        C113   1.388       .  A
C106        C120   1.419       .  A
C106        C114   1.385       .  A
C107        C115   1.385       .  A
C107        C118   1.416       .  A
C108        C116   1.388       .  A
C108        C119   1.419       .  A
C109        C110   1.371       .  A
C109        H121   1.082       .  S
C110        H122   1.083       .  S
C111        C112   1.371       .  A
C111        H123   1.083       .  S
C112        H124   1.082       .  S
C113        C114   1.372       .  A
C113        H125   1.082       .  S
C114        H126   1.082       .  S
C115        C116   1.370       .  A
C115        H127   1.082       .  S
C116        H128   1.082       .  S
C117        C457   1.494       .  S
C118        C286   1.501       .  S
C119        C272   1.490       .  S
C120        C471   1.504       .  S
N131        C136   1.357       .  A
N131        C135   1.359       .  A
N131        H163   1.041       .  S
N132        C139   1.354       .  A
N132        C140   1.353       .  A
N133        C138   1.355       .  A
N133        C137   1.354       .  A
N133        H164   1.041       .  S
N134        C141   1.352       .  A
N134        C142   1.353       .  A
C135        C143   1.388       .  A
C135        C151   1.429       .  A
C136        C152   1.428       .  A
C136        C144   1.388       .  A
C137        C145   1.390       .  A
C137        C154   1.422       .  A
C138        C153   1.419       .  A
C138        C146   1.387       .  A
C139        C151   1.423       .  A
C139        C147   1.388       .  A
C140        C154   1.420       .  A
C140        C148   1.386       .  A
C141        C149   1.389       .  A
C141        C152   1.421       .  A
C142        C150   1.385       .  A
C142        C153   1.417       .  A
C143        C144   1.371       .  A
C143        H155   1.081       .  S
C144        H156   1.081       .  S
C145        C146   1.365       .  A
C145        H157   1.081       .  S
C146        H158   1.082       .  S
C147        C148   1.372       .  A
C147        H159   1.082       .  S
C148        H160   1.082       .  S
C149        C150   1.370       .  A
C149        H161   1.082       .  S
C150        H162   1.082       .  S
C151        C328   1.504       .  S
C152        C244   1.498       .  S
C153        C258   1.493       .  S
C154        C314   1.491       .  S
C165        C230   1.565       .  S
C165        C261   1.569   1_556  S
C165        C555   1.587   1_556  S
C165        C839   1.577       .  S
C166        C216   1.572       .  S
C166        C233   1.588       .  S
C166        C513   1.565       .  S
C166        C794   1.570       .  S
N167        C172   1.355       .  A
N167        C171   1.355       .  A
N167        H199   1.038       .  S
N168        C175   1.350       .  A
N168        C176   1.350       .  A
N169        C174   1.356       .  A
N169        C173   1.355       .  A
N169        H200   1.037       .  S
N170        C177   1.350       .  A
N170        C178   1.350       .  A
C171        C179   1.387       .  A
C171        C187   1.415       .  A
C172        C188   1.417       .  A
C172        C180   1.388       .  A
C173        C181   1.388       .  A
C173        C190   1.420       .  A
C174        C189   1.418       .  A
C174        C182   1.386       .  A
C175        C187   1.414       .  A
C175        C183   1.387       .  A
C176        C190   1.414       .  A
C176        C184   1.387       .  A
C177        C185   1.386       .  A
C177        C188   1.413       .  A
C178        C186   1.387       .  A
C178        C189   1.414       .  A
C179        C180   1.367       .  A
C179        H191   1.083       .  S
C180        H192   1.081       .  S
C181        C182   1.370       .  A
C181        H193   1.081       .  S
C182        H194   1.083       .  S
C183        C184   1.371       .  A
C183        H195   1.082       .  S
C184        H196   1.082       .  S
C185        C186   1.369       .  A
C185        H197   1.082       .  S
C186        H198   1.082       .  S
C187        C359   1.487       .  S
C188        C205   1.488       .  S
C189        C219   1.490       .  S
C190        C345   1.489       .  S
C201        C202   1.420       .  A
C201        C206   1.394       .  A
C201        H208   1.083       .  S
C202        C758   1.570   1_554  S
C202        C203   1.439       .  A
C203        C204   1.402       .  A
C203        N210   1.434       .  S
C204        C205   1.396       .  A
C204        H209   1.084       .  S
C205        C206   1.403       .  A
C206        N207   1.436       .  S
N207        O211   1.262       .  A
N207        O212   1.263       .  A
N210        O214   1.263       .  A
N210        O213   1.261       .  A
C215        C216   1.422       .  A
C215        C220   1.402       .  A
C215        H222   1.078       .  S
C216        C217   1.436       .  A
C217        C218   1.400       .  A
C217        N224   1.431       .  S
C218        C219   1.394       .  A
C218        H223   1.084       .  S
C219        C220   1.405       .  A
C220        N221   1.438       .  S
N221        O225   1.262       .  A
N221        O226   1.263       .  A
N224        O228   1.262       .  A
N224        O227   1.261       .  A
C229        C234   1.393       .  A
C229        C822   1.411       .  A
C229        H236   1.083       .  S
C230        C231   1.434   1_556  A
C230        C821   1.411       .  A
C231        C824   1.407       .  A
C231        N238   1.438       .  S
C232        C233   1.418       .  A
C232        C823   1.407       .  A
C232        H829   1.076       .  S
C233        C234   1.424       .  A
C234        N235   1.430       .  S
N235        O831   1.262       .  A
N235        O240   1.262       .  A
H237        C824   1.076       .  S
N238        O834   1.263       .  A
N238        O241   1.260       .  A
O239        N827   1.262       .  A
O242        N830   1.263       .  A
C243        C244   1.398       .  A
C243        C248   1.403       .  A
C243        H250   1.084       .  S
C244        C245   1.407       .  A
C245        C246   1.402       .  A
C245        N252   1.439       .  S
C246        C247   1.422       .  A
C246        H251   1.083       .  S
C247        C757   1.577       .  S
C247        C248   1.439       .  A
C248        N249   1.432       .  S
N249        O253   1.263       .  A
N249        O254   1.261       .  A
N252        O256   1.263       .  A
N252        O255   1.263       .  A
C257        C258   1.397       .  A
C257        C262   1.399       .  A
C257        H264   1.084       .  S
C258        C259   1.406       .  A
C259        C260   1.402       .  A
C259        N266   1.436       .  S
C260        C261   1.421       .  A
C260        H265   1.078       .  S
C261        C262   1.432       .  A
C262        N263   1.430       .  S
N263        O267   1.262   1_554  A
N263        O860   1.261       .  A
N266        O270   1.262       .  A
N266        O269   1.263       .  A
O268        N855   1.261       .  A
C271        C272   1.395       .  A
C271        C276   1.401       .  A
C271        H278   1.084       .  S
C272        C273   1.404       .  A
C273        C274   1.399       .  A
C273        N280   1.436       .  S
C274        C275   1.418       .  A
C274        H279   1.083       .  S
C275        C688   1.569       .  S
C275        C276   1.445       .  A
C276        N277   1.438       .  S
N277        O281   1.263       .  A
N277        O282   1.260       .  A
N280        O284   1.262       .  A
N280        O283   1.262       .  A
C285        C286   1.393       .  A
C285        C290   1.399       .  A
C285        H292   1.085       .  S
C286        C287   1.410       .  A
C287        C288   1.411       .  A
C287        N294   1.436       .  S
C288        C289   1.423       .  A
C288        H293   1.080       .  S
C289        C290   1.435       .  A
C290        N291   1.427       .  S
N291        O295   1.263       .  A
N291        O888   1.262   1_554  A
N294        O298   1.262       .  A
N294        O297   1.262       .  A
O296        N883   1.262       .  A
C299        C304   1.412       .  A
C299        C892   1.417       .  A
C299        H306   1.077       .  S
C300        C301   1.425       .  A
C300        C891   1.417   1_554  A
C301        C302   1.396       .  A
C301        N900   1.435       .  S
C302        C303   1.411   1_554  A
C302        H307   1.071       .  S
C303        C896   1.433       .  A
C304        C895   1.433       .  A
C304        N897   1.433       .  S
N305        C896   1.433       .  S
N305        O901   1.262       .  A
N305        O310   1.263       .  A
N308        C893   1.435       .  S
N308        O904   1.261       .  A
N308        O311   1.263       .  A
O309        N897   1.262       .  A
O312        N900   1.261       .  A
C313        C314   1.396       .  A
C313        C318   1.396       .  A
C313        H320   1.084       .  S
C314        C315   1.407       .  A
C315        C316   1.404       .  A
C315        N322   1.437       .  S
C316        C317   1.422       .  A
C316        H321   1.079       .  S
C317        C318   1.430       .  A
C318        N319   1.430       .  S
N319        O323   1.262   1_554  A
N319        O916   1.262       .  A
N322        O326   1.262       .  A
N322        O325   1.263       .  A
O324        N911   1.262       .  A
C327        C328   1.398       .  A
C327        C332   1.407       .  A
C327        H334   1.084       .  S
C328        C329   1.409       .  A
C329        C330   1.406       .  A
C329        N336   1.440       .  S
C330        C331   1.422       .  A
C330        H335   1.083       .  S
C331        C687   1.579       .  S
C331        C332   1.440       .  A
C332        N333   1.430       .  S
N333        O337   1.263       .  A
N333        O338   1.261       .  A
N336        O340   1.263       .  A
N336        O339   1.263       .  A
C341        C342   1.420       .  A
C341        C346   1.402       .  A
C341        H348   1.077       .  S
C342        C343   1.432       .  A
C343        C344   1.397       .  A
C343        N350   1.434       .  S
C344        C345   1.395       .  A
C344        H349   1.084       .  S
C345        C346   1.407       .  A
C346        N347   1.437       .  S
N347        O351   1.262       .  A
N347        O352   1.263       .  A
N350        O354   1.261       .  A
N350        O353   1.263       .  A
C355        C356   1.419       .  A
C355        C360   1.399       .  A
C355        H362   1.077       .  S
C356        C686   1.566   1_554  S
C356        C357   1.433       .  A
C357        C358   1.399       .  A
C357        N364   1.434       .  S
C358        C359   1.396       .  A
C358        H363   1.084       .  S
C359        C360   1.405       .  A
C360        N361   1.437       .  S
N361        O365   1.262       .  A
N361        O366   1.263       .  A
N364        O368   1.262   1_554  A
N364        O367   1.261       .  A
C369        C374   1.410       .  A
C369        C962   1.407   1_554  A
C369        H376   1.073       .  S
C370        C371   1.426       .  A
C370        C961   1.408       .  A
C371        C372   1.395       .  A
C371        N378   1.432       .  S
C372        C373   1.407       .  A
C372        H377   1.072       .  S
C373        C966   1.438       .  A
C374        C965   1.438   1_554  A
C374        N375   1.435       .  S
N375        O379   1.263       .  A
N375        O380   1.261       .  A
N378        O382   1.262       .  A
N378        O381   1.262       .  A
C383        C384   1.405       .  A
C383        C388   1.405       .  A
C383        H390   1.083       .  S
C384        C385   1.410       .  A
C385        C386   1.400       .  A
C385        N392   1.441       .  S
C386        C387   1.426       .  A
C386        H391   1.079       .  S
C387        C685   1.586       .  S
C387        C388   1.424       .  A
C388        N389   1.430       .  S
N389        O393   1.262       .  A
N389        O394   1.263       .  A
N392        O396   1.263       .  A
N392        O395   1.263       .  A
C397        C398   1.399       .  A
C397        C402   1.405       .  A
C397        H404   1.084       .  S
C398        C399   1.407       .  A
C399        C400   1.396       .  A
C399        N406   1.439       .  S
C400        C401   1.421       .  A
C400        H405   1.083       .  S
C401        C402   1.436       .  A
C402        N403   1.431       .  S
N403        O407   1.261       .  A
N403        O408   1.263       .  A
N406        O410   1.263       .  A
N406        O409   1.263       .  A
C411        C412   1.393       .  A
C411        C416   1.405       .  A
C411        H418   1.084       .  S
C412        C413   1.397       .  A
C413        C414   1.396       .  A
C413        N420   1.429       .  S
C414        C415   1.416       .  A
C414        H419   1.073       .  S
C415        C416   1.443       .  A
C416        N417   1.433       .  S
N417        O421   1.262       .  A
N417        O422   1.262       .  A
N420        O424   1.262       .  A
N420        O423   1.262       .  A
C425        C426   1.417       .  A
C425        C430   1.400       .  A
C425        H432   1.072       .  S
C426        C650   1.577       .  S
C426        C427   1.435       .  A
C427        C428   1.404       .  A
C427        N434   1.424       .  S
C428        C429   1.391       .  A
C428        H433   1.084       .  S
C429        C430   1.399       .  A
C430        N431   1.429       .  S
N431        O435   1.262       .  A
N431        O436   1.262       .  A
N434        O438   1.255       .  A
N434        O437   1.263       .  A
C439        C440   1.415       .  A
C439        C444   1.412       .  A
C439        H446   1.077       .  S
C440       C1033   1.426       .  A
C441        C442   1.402       .  A
C441       C1032   1.426       .  A
C441        N448   1.433       .  S
C442        C443   1.408       .  A
C442        H447   1.074       .  S
C443       C1036   1.438   1_554  A
C444       C1035   1.438       .  A
C444        N445   1.437       .  S
N445        O449   1.261       .  A
N445        O450   1.262       .  A
N448        O452   1.261       .  A
N448       O1043   1.263       .  A
O451       N1040   1.263       .  A
C453        C454   1.424       .  A
C453        C458   1.405       .  A
C453        H460   1.082       .  S
C454        C455   1.435       .  A
C455        C456   1.400       .  A
C455        N462   1.421       .  S
C456        C457   1.391       .  A
C456        H461   1.085       .  S
C457        C458   1.405       .  A
C458        N459   1.435       .  S
N459        O463   1.262       .  A
N459        O464   1.262       .  A
N462        O466   1.261       .  A
N462        O465   1.263       .  A
C467        C468   1.421       .  A
C467        C472   1.411       .  A
C467        H474   1.078       .  S
C468        C649   1.579       .  S
C468        C469   1.431       .  A
C469        C470   1.401       .  A
C469        N476   1.428       .  S
C470        C471   1.397       .  A
C470        H475   1.084       .  S
C471        C472   1.412       .  A
C472        N473   1.437       .  S
N473        O477   1.263       .  A
N473        O478   1.262       .  A
N476        O480   1.261       .  A
N476        O479   1.262       .  A
C481        C486   1.402       .  A
C481       C1074   1.399   1_556  A
C481        H488   1.084       .  S
C482        C483   1.408       .  A
C482       C1073   1.399       .  A
C483        C484   1.401       .  A
C483        N490   1.431       .  S
C484        C485   1.419       .  A
C484        H489   1.077       .  S
C485       C1078   1.432       .  A
C486       C1077   1.432   1_556  A
C486        N487   1.433       .  S
N487        O491   1.262       .  A
N487       O1084   1.261       .  A
N490        O494   1.262       .  A
N490       O1085   1.262       .  A
O492       N1079   1.261       .  A
O493       N1082   1.262       .  A
C495        C496   1.416   1_556  A
C495        C500   1.402       .  A
C495        H502   1.080       .  S
C496       C1089   1.447       .  A
C497        C498   1.407       .  A
C497       C1088   1.447       .  A
C497        N504   1.439       .  S
C498        C499   1.397       .  A
C498        H503   1.084       .  S
C499       C1092   1.408       .  A
C500       C1091   1.408   1_556  A
C500        N501   1.433       .  S
N501        O505   1.262       .  A
N501       O1098   1.262       .  A
N504        O508   1.263       .  A
N504       O1099   1.261       .  A
O506       N1093   1.262       .  A
O507       N1096   1.261       .  A
C509        C510   1.401       .  A
C509        C514   1.408       .  A
C509        H516   1.084       .  S
C510       C1103   1.403       .  A
C511        C512   1.395       .  A
C511       C1102   1.403   1_554  A
C511        N518   1.435       .  S
C512       C1105   1.422   1_554  A
C512        H517   1.083       .  S
C513        C514   1.438       .  A
C513       C1104   1.422       .  A
C514        N515   1.436       .  S
N515        O519   1.263       .  A
N515        O520   1.260       .  A
N518       O1114   1.263       .  A
N518        O521   1.262       .  A
O522       N1110   1.263       .  A
C523        C524   1.392       .  A
C523        C528   1.395       .  A
C523        H530   1.084       .  S
C524       C1117   1.404       .  A
C525        C526   1.397       .  A
C525       C1116   1.404       .  A
C525        N532   1.430       .  S
C526        C527   1.416       .  A
C526        H531   1.077       .  S
C527       C1120   1.441   1_554  A
C528       C1119   1.441       .  A
C528        N529   1.438       .  S
N529       O1125   1.262       .  A
N529        O534   1.260       .  A
N532       O1128   1.262       .  A
N532        O535   1.262       .  A
O533       N1121   1.262       .  A
O536       N1124   1.262       .  A
C537        C538   1.378       .  A
C537        C542   1.388       .  A
C537        H544   1.086       .  S
C538       C1131   1.403       .  A
C539        C540   1.408       .  A
C539       C1130   1.403       .  A
C539       N1138   1.434       .  S
C540       C1133   1.422       .  A
C540        H545   1.081       .  S
C541        C542   1.441       .  A
C541       C1132   1.421       .  A
C542       N1135   1.429       .  S
N543       C1134   1.429       .  S
N543       O1139   1.262   1_554  A
N543        O548   1.260       .  A
N546       C1131   1.435       .  S
N546       O1142   1.262       .  A
N546        O549   1.262       .  A
O547       N1135   1.262       .  A
O550       N1138   1.262       .  A
C551        C552   1.396       .  A
C551        C556   1.400       .  A
C551        H558   1.084       .  S
C552        C617   1.485       .  S
C552       C1145   1.409   1_554  A
C553        C554   1.401       .  A
C553       C1144   1.409       .  A
C553        N560   1.430       .  S
C554       C1147   1.421       .  A
C554        H559   1.080       .  S
C555        C556   1.432       .  A
C555       C1146   1.421   1_554  A
C556        N557   1.426       .  S
N557        O561   1.263       .  A
N557       O1154   1.262       .  A
N560        O564   1.262       .  A
N560       O1155   1.262       .  A
O562       N1149   1.262       .  A
O563       N1152   1.262       .  A
C565        C566   1.418       .  A
C565        C570   1.402       .  A
C565        H572   1.077       .  S
C566       C1159   1.440       .  A
C567        C568   1.406       .  A
C567       C1158   1.440       .  A
C567        N574   1.435       .  S
C568       C1161   1.402   1_556  A
C568        H573   1.084       .  S
C569        C603   1.495       .  S
C569        C570   1.407       .  A
C569       C1160   1.402       .  A
C570        N571   1.429       .  S
N571        O575   1.262       .  A
N571       O1168   1.262       .  A
N574        O578   1.262       .  A
N574       O1169   1.262       .  A
O576       N1163   1.262       .  A
O577       N1166   1.262       .  A
C579        C580   1.401       .  A
C579        C584   1.410       .  A
C579        H586   1.084       .  S
C580       C1173   1.408   1_554  A
C581        C582   1.402       .  A
C581       C1172   1.408       .  A
C581        N588   1.429       .  S
C582       C1175   1.416       .  A
C582        H587   1.072       .  S
C583        C584   1.443       .  A
C583       C1174   1.416   1_554  A
C584        N585   1.433       .  S
N585        O589   1.262       .  A
N585        O590   1.262       .  A
N588        O592   1.262       .  A
N588        O591   1.262       .  A
O593        V601   1.912       .  S
O593        C603   1.268       .  A
O594        V601   1.916   1_455  S
O595        V601   1.914       .  S
O596        V601   1.912   1_455  S
O596        C606   1.268       .  A
O597        V602   1.907   1_455  S
O598        V602   1.907       .  S
O598        C605   1.266   1_556  A
O599        V602   1.898   1_455  S
O599        C604   1.263   1_556  A
O600        V602   1.898       .  S
C604        C646   1.476       .  S
C605        C618   1.481       .  S
C606       C1172   1.500       .  S
O607        V615   1.904   1_545  S
O608        V615   1.919       .  S
O609        V615   1.885   1_545  S
O610        V615   1.888       .  S
O611        V616   1.894       .  S
O611        C620   1.263   1_556  A
O612        V616   1.898       .  S
O612        C619   1.263   1_566  A
O613        V616   1.902       .  S
O613        C618   1.264   1_556  A
O614        V616   1.893   1_545  S
O614        C617   1.262   1_556  A
C619        C633   1.454       .  S
C620       C1130   1.454       .  S
O621        V629   1.898   1_655  S
O621        C631   1.264   1_556  A
O622        V629   1.897       .  S
O622        C632   1.263   1_556  A
O623        V629   1.896   1_655  S
O623        C633   1.262   1_556  A
O624        V629   1.891       .  S
O624        C634   1.264   1_556  A
O625        V630   1.891       .  S
O626        V630   1.888   1_655  S
O627        V630   1.903       .  S
O628        V630   1.899   1_655  S
C631       C1102   1.480   1_554  S
C632        C647   1.466       .  S
C634       C1116   1.470       .  S
O635        V643   1.901       .  S
O635        C645   1.264   1_566  A
O636        V643   1.900       .  S
O636        C646   1.265   1_556  A
O637        V643   1.897       .  S
O637        C647   1.263   1_566  A
O638        V643   1.899       .  S
O638        C648   1.265   1_556  A
O639        V644   1.902       .  S
O640        V644   1.903       .  S
O641        V644   1.913       .  S
O642        V644   1.908       .  S
C645       C1091   1.490       .  S
C648       C1074   1.486       .  S
C649       C1035   1.581       .  S
C649       C1046   1.577       .  S
C649       C1175   1.590       .  S
C650       C1007   1.574   1_554  S
C650       C1032   1.581       .  S
C650       C1077   1.571       .  S
N651        C656   1.354       .  A
N651        C655   1.356       .  A
N651        H683   1.040       .  S
N652        C659   1.351       .  A
N652        C660   1.351       .  A
N653        C658   1.355       .  A
N653        C657   1.355       .  A
N653        H684   1.030       .  S
N654        C661   1.350       .  A
N654        C662   1.351       .  A
C655        C663   1.388       .  A
C655        C671   1.421       .  A
C656        C672   1.414       .  A
C656        C664   1.386       .  A
C657        C665   1.389       .  A
C657        C674   1.424       .  A
C658        C673   1.422       .  A
C658        C666   1.388       .  A
C659        C671   1.417       .  A
C659        C667   1.385       .  A
C660        C674   1.420       .  A
C660        C668   1.388       .  A
C661        C669   1.386       .  A
C661        C672   1.413       .  A
C662        C670   1.388       .  A
C662        C673   1.417       .  A
C663        C664   1.374       .  A
C663        H675   1.082       .  S
C664        H676   1.082       .  S
C665        C666   1.372       .  A
C665        H677   1.082       .  S
C666        H678   1.082       .  S
C667        C668   1.368       .  A
C667        H679   1.081       .  S
C668        H680   1.079       .  S
C669        C670   1.376       .  A
C669        H681   1.083       .  S
C670        H682   1.082       .  S
C671        C976   1.504       .  S
C672       C1021   1.486       .  S
C673       C1004   1.487       .  S
C674        C990   1.494       .  S
C685        C962   1.576   1_554  S
C685        C993   1.574   1_554  S
C685       C1133   1.570       .  S
C686        C934   1.564       .  S
C686        C965   1.578       .  S
C686       C1158   1.582       .  S
C687        C895   1.589       .  S
C687        C909   1.568       .  S
C687       C1088   1.579       .  S
C688        C881   1.587       .  S
C688        C892   1.581       .  S
C688       C1119   1.558       .  S
N689        C694   1.359       .  A
N689        C693   1.356       .  A
N689        H721   1.038       .  S
N690        C697   1.353       .  A
N690        C698   1.356       .  A
N691        C696   1.356       .  A
N691        C695   1.359       .  A
N691        H722   1.037       .  S
N692        C699   1.354       .  A
N692        C700   1.351       .  A
C693        C701   1.389       .  A
C693        C709   1.423       .  A
C694        C710   1.421       .  A
C694        C702   1.386       .  A
C695        C703   1.386       .  A
C695        C712   1.421       .  A
C696        C711   1.423       .  A
C696        C704   1.389       .  A
C697        C709   1.422       .  A
C697        C705   1.388       .  A
C698        C712   1.419       .  A
C698        C706   1.385       .  A
C699        C707   1.385       .  A
C699        C710   1.416       .  A
C700        C708   1.388       .  A
C700        C711   1.419       .  A
C701        C702   1.371       .  A
C701        H713   1.082       .  S
C702        H714   1.083       .  S
C703        C704   1.371       .  A
C703        H715   1.083       .  S
C704        H716   1.082       .  S
C705        C706   1.372       .  A
C705        H717   1.082       .  S
C706        H718   1.082       .  S
C707        C708   1.370       .  A
C707        H719   1.082       .  S
C708        H720   1.082       .  S
C709       C1049   1.494       .  S
C710        C878   1.501       .  S
C711        C864   1.490       .  S
C712       C1063   1.504       .  S
N723        C728   1.358       .  A
N723        C727   1.360       .  A
N723        H755   1.028       .  S
N724        C731   1.354       .  A
N724        C732   1.353       .  A
N725        C730   1.356       .  A
N725        C729   1.355       .  A
N725        H756   1.029       .  S
N726        C733   1.351       .  A
N726        C734   1.353       .  A
C727        C735   1.388       .  A
C727        C743   1.429       .  A
C728        C744   1.428       .  A
C728        C736   1.388       .  A
C729        C737   1.390       .  A
C729        C746   1.422       .  A
C730        C745   1.419       .  A
C730        C738   1.387       .  A
C731        C743   1.423       .  A
C731        C739   1.388       .  A
C732        C746   1.420       .  A
C732        C740   1.386       .  A
C733        C741   1.389       .  A
C733        C744   1.421       .  A
C734        C742   1.385       .  A
C734        C745   1.417       .  A
C735        C736   1.371       .  A
C735        H747   1.081       .  S
C736        H748   1.082       .  S
C737        C738   1.365       .  A
C737        H749   1.081       .  S
C738        H750   1.082       .  S
C739        C740   1.372       .  A
C739        H751   1.082       .  S
C740        H752   1.082       .  S
C741        C742   1.370       .  A
C741        H753   1.082       .  S
C742        H754   1.082       .  S
C743        C920   1.505       .  S
C744        C836   1.497       .  S
C745        C850   1.493       .  S
C746        C906   1.491       .  S
C757        C822   1.565       .  S
C757        C853   1.569       .  S
C757       C1147   1.587       .  S
C758        C808   1.572       .  S
C758        C825   1.587       .  S
C758       C1105   1.566       .  S
N759        C764   1.355       .  A
N759        C763   1.355       .  A
N759        H791   1.038       .  S
N760        C767   1.350       .  A
N760        C768   1.350       .  A
N761        C766   1.356       .  A
N761        C765   1.355       .  A
N761        H792   1.037       .  S
N762        C769   1.350       .  A
N762        C770   1.350       .  A
C763        C771   1.387       .  A
C763        C779   1.415       .  A
C764        C780   1.417       .  A
C764        C772   1.388       .  A
C765        C773   1.388       .  A
C765        C782   1.420       .  A
C766        C781   1.418       .  A
C766        C774   1.386       .  A
C767        C779   1.413       .  A
C767        C775   1.387       .  A
C768        C782   1.414       .  A
C768        C776   1.387       .  A
C769        C777   1.386       .  A
C769        C780   1.413       .  A
C770        C778   1.387       .  A
C770        C781   1.414       .  A
C771        C772   1.366       .  A
C771        H783   1.083       .  S
C772        H784   1.081       .  S
C773        C774   1.369       .  A
C773        H785   1.081       .  S
C774        H786   1.083       .  S
C775        C776   1.371       .  A
C775        H787   1.082       .  S
C776        H788   1.082       .  S
C777        C778   1.369       .  A
C777        H789   1.082       .  S
C778        H790   1.082       .  S
C779        C951   1.486       .  S
C780        C797   1.488       .  S
C781        C811   1.490       .  S
C782        C937   1.489       .  S
C793        C794   1.420       .  A
C793        C798   1.394       .  A
C793        H800   1.083       .  S
C794        C795   1.439       .  A
C795        C796   1.402       .  A
C795        N802   1.434       .  S
C796        C797   1.396       .  A
C796        H801   1.084       .  S
C797        C798   1.403       .  A
C798        N799   1.436       .  S
N799        O803   1.262       .  A
N799        O804   1.262       .  A
N802        O806   1.263       .  A
N802        O805   1.261       .  A
C807        C808   1.422       .  A
C807        C812   1.402       .  A
C807        H814   1.078       .  S
C808        C809   1.436       .  A
C809        C810   1.400       .  A
C809        N816   1.431       .  S
C810        C811   1.394       .  A
C810        H815   1.084       .  S
C811        C812   1.405       .  A
C812        N813   1.438       .  S
N813        O817   1.262       .  A
N813        O818   1.263       .  A
N816        O820   1.262   1_556  A
N816        O819   1.261       .  A
C821        C826   1.393       .  A
C821        H828   1.083       .  S
C822        C823   1.434       .  A
C823        N830   1.438       .  S
C824        C825   1.418   1_554  A
C825        C826   1.424       .  A
C826        N827   1.430       .  S
N827        O832   1.262       .  A
N830        O833   1.260       .  A
C835        C836   1.398       .  A
C835        C840   1.403       .  A
C835        H842   1.084       .  S
C836        C837   1.406       .  A
C837        C838   1.402       .  A
C837        N844   1.439       .  S
C838        C839   1.422       .  A
C838        H843   1.083       .  S
C839        C840   1.438       .  A
C840        N841   1.432       .  S
N841        O845   1.263       .  A
N841        O846   1.261       .  A
N844        O848   1.263       .  A
N844        O847   1.263       .  A
C849        C850   1.397       .  A
C849        C854   1.400       .  A
C849        H856   1.084       .  S
C850        C851   1.406       .  A
C851        C852   1.402       .  A
C851        N858   1.437       .  S
C852        C853   1.420       .  A
C852        H857   1.078       .  S
C853        C854   1.432       .  A
C854        N855   1.430       .  S
N855        O859   1.262       .  A
N858        O862   1.262       .  A
N858        O861   1.263       .  A
C863        C864   1.395       .  A
C863        C868   1.401       .  A
C863        H870   1.084       .  S
C864        C865   1.404       .  A
C865        C866   1.399       .  A
C865        N872   1.436       .  S
C866        C867   1.418       .  A
C866        H871   1.083       .  S
C867        C868   1.445       .  A
C868        N869   1.438       .  S
N869        O873   1.263       .  A
N869        O874   1.260       .  A
N872        O876   1.262       .  A
N872        O875   1.262       .  A
C877        C878   1.393       .  A
C877        C882   1.399       .  A
C877        H884   1.085       .  S
C878        C879   1.410       .  A
C879        C880   1.411       .  A
C879        N886   1.436       .  S
C880        C881   1.423       .  A
C880        H885   1.080       .  S
C881        C882   1.435       .  A
C882        N883   1.427       .  S
N883        O887   1.263       .  A
N886        O890   1.262       .  A
N886        O889   1.262       .  A
C891        C896   1.413       .  A
C891        H898   1.077       .  S
C892        C893   1.426       .  A
C893        C894   1.396       .  A
C894        C895   1.411       .  A
C894        H899   1.072       .  S
N897        O902   1.263       .  A
N900        O903   1.263       .  A
C905        C906   1.396       .  A
C905        C910   1.396       .  A
C905        H912   1.084       .  S
C906        C907   1.406       .  A
C907        C908   1.403       .  A
C907        N914   1.436       .  S
C908        C909   1.422       .  A
C908        H913   1.079       .  S
C909        C910   1.430       .  A
C910        N911   1.430       .  S
N911        O915   1.262       .  A
N914        O918   1.262       .  A
N914        O917   1.263       .  A
C919        C920   1.398       .  A
C919        C924   1.407       .  A
C919        H926   1.084       .  S
C920        C921   1.409       .  A
C921        C922   1.406       .  A
C921        N928   1.439       .  S
C922        C923   1.422       .  A
C922        H927   1.083       .  S
C923        C924   1.440       .  A
C924        N925   1.430       .  S
N925        O929   1.263       .  A
N925        O930   1.261       .  A
N928        O932   1.263       .  A
N928        O931   1.263       .  A
C933        C934   1.420       .  A
C933        C938   1.402       .  A
C933        H940   1.077       .  S
C934        C935   1.432       .  A
C935        C936   1.397       .  A
C935        N942   1.434       .  S
C936        C937   1.395       .  A
C936        H941   1.084       .  S
C937        C938   1.407       .  A
C938        N939   1.437       .  S
N939        O943   1.262       .  A
N939        O944   1.263       .  A
N942        O946   1.261       .  A
N942        O945   1.263       .  A
C947        C948   1.419       .  A
C947        C952   1.399       .  A
C947        H954   1.077       .  S
C948        C949   1.433       .  A
C949        C950   1.399       .  A
C949        N956   1.434       .  S
C950        C951   1.396       .  A
C950        H955   1.084       .  S
C951        C952   1.405       .  A
C952        N953   1.437       .  S
N953        O957   1.262       .  A
N953        O958   1.263       .  A
N956        O960   1.262       .  A
N956        O959   1.261       .  A
C961        C966   1.410       .  A
C961        H968   1.073       .  S
C962        C963   1.426       .  A
C963        C964   1.395       .  A
C963        N970   1.432       .  S
C964        C965   1.407       .  A
C964        H969   1.072       .  S
C966        N967   1.435       .  S
N967        O971   1.263       .  A
N967        O972   1.261       .  A
N970        O974   1.262       .  A
N970        O973   1.262       .  A
C975        C976   1.405       .  A
C975        C980   1.405       .  A
C975        H982   1.083       .  S
C976        C977   1.410       .  A
C977        C978   1.400       .  A
C977        N984   1.441       .  S
C978        C979   1.426       .  A
C978        H983   1.079       .  S
C979        C980   1.424       .  A
C980        N981   1.430       .  S
N981        O985   1.262       .  A
N981        O986   1.263       .  A
N984        O988   1.263       .  A
N984        O987   1.263       .  A
C989        C990   1.399       .  A
C989        C994   1.405       .  A
C989        H996   1.084       .  S
C990        C991   1.407       .  A
C991        C992   1.396       .  A
C991        N998   1.438       .  S
C992        C993   1.421       .  A
C992        H997   1.083       .  S
C993        C994   1.435       .  A
C994        N995   1.430       .  S
N995        O999   1.261       .  A
N995       O1000   1.263       .  A
N998       O1002   1.263       .  A
N998       O1001   1.263       .  A
C1003      C1004   1.394       .  A
C1003      C1008   1.405       .  A
C1003      H1010   1.084       .  S
C1004      C1005   1.397       .  A
C1005      C1006   1.396       .  A
C1005      N1012   1.429       .  S
C1006      C1007   1.416       .  A
C1006      H1011   1.072       .  S
C1007      C1008   1.443       .  A
C1008      N1009   1.433       .  S
N1009      O1013   1.262       .  A
N1009      O1014   1.262       .  A
N1012      O1016   1.262       .  A
N1012      O1015   1.262       .  A
C1017      C1018   1.417       .  A
C1017      C1022   1.400       .  A
C1017      H1024   1.072       .  S
C1018      C1019   1.436       .  A
C1019      C1020   1.404       .  A
C1019      N1026   1.424       .  S
C1020      C1021   1.391       .  A
C1020      H1025   1.084       .  S
C1021      C1022   1.399       .  A
C1022      N1023   1.429       .  S
N1023      O1027   1.262       .  A
N1023      O1028   1.262       .  A
N1026      O1030   1.255       .  A
N1026      O1029   1.263       .  A
C1031      C1032   1.415   1_556  A
C1031      C1036   1.412       .  A
C1031      H1038   1.077       .  S
C1033      C1034   1.401       .  A
C1033      N1040   1.433       .  S
C1034      C1035   1.408       .  A
C1034      H1039   1.074       .  S
C1036      N1037   1.437       .  S
N1037      O1041   1.261       .  A
N1037      O1042   1.262       .  A
N1040      O1044   1.261       .  A
C1045      C1046   1.424       .  A
C1045      C1050   1.405       .  A
C1045      H1052   1.082       .  S
C1046      C1047   1.435       .  A
C1047      C1048   1.400       .  A
C1047      N1054   1.422       .  S
C1048      C1049   1.391       .  A
C1048      H1053   1.085       .  S
C1049      C1050   1.405       .  A
C1050      N1051   1.435       .  S
N1051      O1055   1.262       .  A
N1051      O1056   1.262       .  A
N1054      O1058   1.261       .  A
N1054      O1057   1.263       .  A
C1059      C1060   1.421       .  A
C1059      C1064   1.411       .  A
C1059      H1066   1.078       .  S
C1060      C1061   1.431       .  A
C1061      C1062   1.401       .  A
C1061      N1068   1.428       .  S
C1062      C1063   1.397       .  A
C1062      H1067   1.084       .  S
C1063      C1064   1.411       .  A
C1064      N1065   1.437       .  S
N1065      O1069   1.263       .  A
N1065      O1070   1.262       .  A
N1068      O1072   1.261       .  A
N1068      O1071   1.262   1_556  A
C1073      C1078   1.402       .  A
C1073      H1080   1.084       .  S
C1074      C1075   1.407       .  A
C1075      C1076   1.401       .  A
C1075      N1082   1.431       .  S
C1076      C1077   1.419       .  A
C1076      H1081   1.077       .  S
C1078      N1079   1.433       .  S
N1079      O1083   1.262       .  A
N1082      O1086   1.262       .  A
C1087      C1088   1.416       .  A
C1087      C1092   1.403       .  A
C1087      H1094   1.080       .  S
C1089      C1090   1.408       .  A
C1089      N1096   1.439       .  S
C1090      C1091   1.397       .  A
C1090      H1095   1.084       .  S
C1092      N1093   1.433       .  S
N1093      O1097   1.262       .  A
N1096      O1100   1.263       .  A
C1101      C1102   1.401       .  A
C1101      C1106   1.408       .  A
C1101      H1108   1.084       .  S
C1103      C1104   1.395       .  A
C1103      N1110   1.435       .  S
C1104      H1109   1.083       .  S
C1105      C1106   1.437       .  A
C1106      N1107   1.436       .  S
N1107      O1111   1.263       .  A
N1107      O1112   1.260       .  A
N1110      O1113   1.262       .  A
C1115      C1116   1.392   1_556  A
C1115      C1120   1.395       .  A
C1115      H1122   1.084       .  S
C1117      C1118   1.397       .  A
C1117      N1124   1.429       .  S
C1118      C1119   1.416       .  A
C1118      H1123   1.077       .  S
C1120      N1121   1.438       .  S
N1121      O1126   1.260       .  A
N1124      O1127   1.262       .  A
C1129      C1130   1.378       .  A
C1129      C1134   1.388       .  A
C1129      H1136   1.086       .  S
C1131      C1132   1.409       .  A
C1132      H1137   1.081       .  S
C1133      C1134   1.441       .  A
N1135      O1140   1.260       .  A
N1138      O1141   1.262   1_554  A
C1143      C1144   1.396       .  A
C1143      C1148   1.400       .  A
C1143      H1150   1.084       .  S
C1145      C1146   1.401       .  A
C1145      N1152   1.430       .  S
C1146      H1151   1.080       .  S
C1147      C1148   1.432       .  A
C1148      N1149   1.426       .  S
N1149      O1153   1.263       .  A
N1152      O1156   1.262       .  A
C1157      C1158   1.418   1_554  A
C1157      C1162   1.402       .  A
C1157      H1164   1.077       .  S
C1159      C1160   1.406       .  A
C1159      N1166   1.435       .  S
C1160      H1165   1.084       .  S
C1161      C1162   1.407       .  A
C1162      N1163   1.430       .  S
N1163      O1167   1.262       .  A
N1166      O1170   1.262       .  A
C1171      C1172   1.402       .  A
C1171      C1176   1.410       .  A
C1171      H1178   1.084       .  S
C1173      C1174   1.402       .  A
C1173      N1180   1.429       .  S
C1174      H1179   1.072       .  S
C1175      C1176   1.443       .  A
C1176      N1177   1.433       .  S
N1177      O1181   1.262       .  A
N1177      O1182   1.262       .  A
N1180      O1184   1.262       .  A
N1180      O1183   1.262       .  A
