geometry optimzed in LAMMPS
_audit_creation_date              2020-11-30 
_audit_creation_method            'lammps2cif' 
_symmetry_space_group_name_H-M    'P1' 
_symmetry_Int_Tables_number       1 
_symmetry_cell_setting            triclinic 
loop_ 
_symmetry_equiv_pos_as_xyz 
  x,y,z 
_cell_length_a                    45.1199024 
_cell_length_b                    44.813621714138854 
_cell_length_c                    32.82485817620304 
_cell_angle_alpha                 89.89084726783801 
_cell_angle_beta                  89.71553539397678 
_cell_angle_gamma                 119.76959288411138 
loop_ 
_atom_site_label 
_atom_site_type_symbol 
_atom_site_fract_x 
_atom_site_fract_y 
_atom_site_fract_z 
_atom_site_charge 
Fe1        Fe  0.20260854  0.75889801  0.16795279     1.65800
Fe2        Fe  0.25684032  0.80038283  0.24513540     1.73200
Fe3        Fe  0.20236639  0.82741733  0.21297839     1.54400
O4          O  0.20227772  0.83349970  0.14934935    -0.81300
O5          O  0.22752248  0.79613044  0.29453768    -0.79600
O6          O  0.21028785  0.79245682  0.12168031    -0.83800
O7          O  0.15227291  0.74754844  0.17461112    -0.78600
O8          O  0.24970553  0.87028119  0.21304950    -0.80400
O9          O  0.23879907  0.74763299  0.24944942    -0.83200
C10         C  0.13683891  0.76004916  0.19459351     0.97600
C11         C  0.20698454  0.81886515  0.11861724     1.05000
O12         O  0.22062501  0.79578354  0.20847165    -1.12100
O13         O  0.28806281  0.80427430  0.19785653    -0.74600
O14         O  0.25081603  0.76496917  0.15518662    -0.78100
O15         O  0.15244993  0.78826241  0.21348364    -0.78700
C16         C  0.28119952  0.78458790  0.16743221     0.96500
O17         O  0.19251472  0.72172707  0.21090811    -0.76700
O18         O  0.28160193  0.85399694  0.24737454    -0.81900
C19         C  0.20983106  0.81003706  0.30344469     0.99100
C20         C  0.27676679  0.87719249  0.23183687     1.05100
O21         O  0.20107541  0.82533486  0.27726887    -0.77500
C22         C  0.21224703  0.72075962  0.23739097     1.03400
Fe23       Fe  0.21042735  0.76348777  0.66276074     1.65800
Fe24       Fe  0.25978220  0.80907699  0.74377784     1.73200
Fe25       Fe  0.19641146  0.82329644  0.70823566     1.54400
O26         O  0.19407184  0.82802014  0.64497748    -0.81300
O27         O  0.23150886  0.80683898  0.79408709    -0.79600
O28         O  0.21404922  0.79623337  0.61718202    -0.83800
O29         O  0.15798407  0.74408356  0.66788184    -0.78600
O30         O  0.24008660  0.87003662  0.70771083    -0.80400
O31         O  0.24435585  0.75669892  0.75269071    -0.83200
C32         C  0.13876500  0.75184773  0.68825122     0.97600
C33         C  0.20373096  0.81776722  0.61419920     1.05000
O34         O  0.22227350  0.79861273  0.70512362    -1.12100
O35         O  0.29350445  0.81310397  0.69861687    -0.74600
O36         O  0.26061450  0.77716009  0.65045871    -0.78100
O37         O  0.15018048  0.77895234  0.70918123    -0.78700
C38         C  0.28965812  0.79679293  0.66574625     0.96500
O39         O  0.20618964  0.72752413  0.70422303    -0.76700
O40         O  0.27944886  0.86253462  0.73999670    -0.81900
C41         C  0.20884197  0.81518364  0.80032724     0.99100
C42         C  0.26908767  0.88171632  0.72406294     1.05100
O43         O  0.19460104  0.82243450  0.77168659    -0.77500
C44         C  0.22291527  0.72859078  0.73559048     1.03400
Fe45       Fe  0.19178640  0.45721648  0.41562605     1.65800
Fe46       Fe  0.24210342  0.44923933  0.34269758     1.73200
Fe47       Fe  0.17339749  0.37798679  0.38242691     1.54400
O48         O  0.18089489  0.37735909  0.44442628    -0.81300
O49         O  0.21440386  0.41703261  0.29557393    -0.79600
O50         O  0.18108582  0.42485546  0.46546132    -0.83800
O51         O  0.14096397  0.43315206  0.39933471    -0.78600
O52         O  0.21287656  0.36781233  0.37367384    -0.80400
O53         O  0.22989932  0.48508099  0.32064721    -0.83200
C54         C  0.11950186  0.40160292  0.39480880     0.97600
C55         C  0.18077194  0.39676781  0.47248974     1.05000
O56         O  0.20254526  0.42831045  0.38018196    -1.12100
O57         O  0.27404619  0.48381364  0.38534922    -0.74600
O58         O  0.24147881  0.48543800  0.43578290    -0.78100
O59         O  0.12845450  0.37897363  0.39151221    -0.78700
C60         C  0.27040412  0.49498374  0.41945503     0.96500
O61         O  0.20129691  0.49329852  0.37082398    -0.76700
O62         O  0.26026195  0.41675887  0.35955313    -0.81900
C63         C  0.18457857  0.39143970  0.29085121     0.99100
C64         C  0.24473844  0.38478179  0.36708589     1.05100
O65         O  0.16451346  0.37559354  0.32042767    -0.77500
C66         C  0.21575041  0.50084964  0.33610030     1.03400
Fe67       Fe  0.18431988  0.45227139  0.92394808     1.65800
Fe68       Fe  0.23980846  0.46185374  0.84678404     1.73200
Fe69       Fe  0.18193168  0.38167265  0.88102651     1.54400
O70         O  0.17990111  0.37506444  0.94384170    -0.81300
O71         O  0.21254507  0.43612942  0.79617895    -0.79600
O72         O  0.18669002  0.42359143  0.97110845    -0.83800
O73         O  0.13304430  0.41572259  0.91465851    -0.78600
O74         O  0.22856086  0.38420315  0.88288857    -0.80400
O75         O  0.22347776  0.49771054  0.83943166    -0.83200
C76         C  0.11751739  0.38697818  0.89635690     0.97600
C77         C  0.18280623  0.39367103  0.97434789     1.05000
O78         O  0.20189118  0.43191870  0.88391587    -1.12100
O79         O  0.27023616  0.49006894  0.89424597    -0.74600
O80         O  0.23338202  0.49145036  0.93890511    -0.78100
O81         O  0.13291667  0.37306440  0.87963132    -0.78700
C82         C  0.26369601  0.50202358  0.92595914     0.96500
O83         O  0.17976312  0.48370351  0.88177004    -0.76700
O84         O  0.26321278  0.43168972  0.84819047    -0.81900
C85         C  0.19249364  0.40439979  0.78949006     0.99100
C86         C  0.25674909  0.40369192  0.86548409     1.05100
O87         O  0.18116336  0.38171786  0.81756137    -0.77500
C88         C  0.20005232  0.50259464  0.85403236     1.03400
Fe89       Fe  0.53970307  0.78714349  0.01726131     1.65800
Fe90       Fe  0.54520093  0.73601287  0.08914072     1.73200
Fe91       Fe  0.61703910  0.80342459  0.05036991     1.54400
O92         O  0.61833572  0.80933571  0.98671780    -0.81300
O93         O  0.56996813  0.76514391  0.13857541    -0.79600
O94         O  0.56401875  0.78378203  0.96651849    -0.83800
O95         O  0.57331932  0.84053249  0.01897547    -0.78600
O96         O  0.62267774  0.76126045  0.04153304    -0.80400
O97         O  0.50448510  0.74475835  0.10179121    -0.83200
C98         C  0.60035081  0.85988622  0.03880779     0.97600
C99         C  0.59579811  0.79851156  0.95883241     1.05000
O100        O  0.56743995  0.77559302  0.05238100    -1.12100
O101        O  0.51904460  0.70369896  0.04210449    -0.74600
O102        O  0.50160174  0.73566897  0.00932992    -0.78100
O103        O  0.61591233  0.84805511  0.05924212    -0.78700
C104        C  0.49903611  0.70668271  0.01770976     0.96500
O105        O  0.51382414  0.79112779  0.06615235    -0.76700
O106        O  0.58277283  0.72196873  0.08239176    -0.81900
C107        C  0.60118036  0.78733538  0.14333043     0.99100
C108        C  0.60978833  0.73306230  0.06086245     1.05100
O109        O  0.62187363  0.80135606  0.11360490    -0.77500
C110        C  0.49757424  0.76839655  0.09314661     1.03400
Fe111      Fe  0.53838677  0.77762060  0.51205299     1.65800
Fe112      Fe  0.53968584  0.73054322  0.59336013     1.73200
Fe113      Fe  0.61525196  0.79323773  0.55183090     1.54400
O114        O  0.61792003  0.78663592  0.48969730    -0.81300
O115        O  0.56949164  0.76056410  0.63998016    -0.79600
O116        O  0.56930132  0.78026871  0.46430402    -0.83800
O117        O  0.56687697  0.82972954  0.52100284    -0.78600
O118        O  0.61985544  0.74984251  0.56019277    -0.80400
O119        O  0.50568012  0.74738000  0.60797680    -0.83200
C120        C  0.59725436  0.85044727  0.53148529     0.97600
C121        C  0.59860123  0.78322160  0.45999135     1.05000
O122        O  0.56449508  0.76715350  0.55238440    -1.12100
O123        O  0.50700616  0.69612161  0.55143122    -0.74600
O124        O  0.50594553  0.72644010  0.49809289    -0.78100
O125        O  0.61796135  0.84059435  0.54284130    -0.78700
C126        C  0.49631271  0.69811308  0.51653323     0.96500
O127        O  0.50454203  0.77723515  0.55442908    -0.76700
O128        O  0.57009631  0.70869718  0.58466555    -0.81900
C129        C  0.59847421  0.78726572  0.64406727     0.99100
C130        C  0.60038268  0.71924246  0.57246586     1.05100
O131        O  0.61846299  0.80247664  0.61423409    -0.77500
C132        C  0.49474172  0.76500956  0.58990306     1.03400
Fe133      Fe  0.78431345  0.23844226  0.41721574     1.65800
Fe134      Fe  0.73455963  0.18297825  0.49249353     1.73200
Fe135      Fe  0.79904552  0.17454734  0.44990391     1.54400
O136        O  0.79711578  0.17285989  0.38654468    -0.81300
O137        O  0.76491224  0.18539641  0.53986179    -0.79600
O138        O  0.78216422  0.21114161  0.36598258    -0.83800
O139        O  0.83717426  0.25914669  0.42029887    -0.78600
O140        O  0.75687474  0.12653664  0.44954164    -0.80400
O141        O  0.74525585  0.23291019  0.50580639    -0.83200
C142        C  0.85642293  0.24884091  0.43533193     0.97600
C143        C  0.78922475  0.18750167  0.35880068     1.05000
O144        O  0.77266742  0.19860284  0.45316875    -1.12100
O145        O  0.70082007  0.17922574  0.44842519    -0.74600
O146        O  0.73326506  0.22444064  0.40861034    -0.78100
O147        O  0.84503606  0.21903620  0.44999004    -0.78700
C148        C  0.70423858  0.20079694  0.42116957     0.96500
O149        O  0.78747818  0.26948728  0.46509995    -0.76700
O150        O  0.71749212  0.13050044  0.48624197    -0.81900
C151        C  0.78935653  0.17919920  0.54334116     0.99100
C152        C  0.72853251  0.11291325  0.46804422     1.05100
O153        O  0.80358566  0.17356065  0.51303933    -0.77500
C154        C  0.76687154  0.26332409  0.49455260     1.03400
Fe155      Fe  0.78244438  0.24156619  0.91023779     1.65800
Fe156      Fe  0.73295046  0.19272833  0.98869466     1.73200
Fe157      Fe  0.79541511  0.17914617  0.95092758     1.54400
O158        O  0.78720253  0.16783541  0.88960153    -0.81300
O159        O  0.75630005  0.18130770  0.03561815    -0.79600
O160        O  0.79091294  0.21564572  0.86357541    -0.83800
O161        O  0.83290470  0.26584204  0.92626053    -0.78600
O162        O  0.75137347  0.13196135  0.96342703    -0.80400
O163        O  0.75566419  0.24255350  0.00961638    -0.83200
C164        C  0.85315028  0.25459754  0.93327784     0.97600
C165        C  0.78946637  0.18674172  0.85954586     1.05000
O166        O  0.77025973  0.20441590  0.94977041    -1.12100
O167        O  0.70353823  0.20258521  0.94830166    -0.74600
O168        O  0.73291040  0.22121358  0.89032959    -0.78100
O169        O  0.84287446  0.22279250  0.93912385    -0.78700
C170        C  0.70580483  0.21119306  0.91103664     0.96500
O171        O  0.77615699  0.27257860  0.95200359    -0.76700
O172        O  0.70792535  0.14211072  0.97063448    -0.81900
C173        C  0.78558334  0.18455973  0.04126664     0.99100
C174        C  0.71951774  0.12156950  0.96718435     1.05100
O175        O  0.80588099  0.18868317  0.01219742    -0.77500
C176        C  0.76893264  0.27063111  0.98976449     1.03400
Fe177      Fe  0.80413315  0.54036096  0.16030135     1.65800
Fe178      Fe  0.75657206  0.54352042  0.08288587     1.73200
Fe179      Fe  0.81447644  0.61692944  0.12806704     1.54400
O180        O  0.80177576  0.61411867  0.18914948    -0.81300
O181        O  0.78073721  0.58216955  0.03984955    -0.79600
O182        O  0.81015922  0.57143222  0.21006323    -0.83800
O183        O  0.85501209  0.56940983  0.14555254    -0.78600
O184        O  0.77027845  0.61898699  0.11409582    -0.80400
O185        O  0.78172622  0.51990011  0.05885535    -0.83200
C186        C  0.87382618  0.60179090  0.14488858     0.97600
C187        C  0.80548510  0.59672046  0.21725811     1.05000
O188        O  0.79171017  0.56690326  0.12394043    -1.12100
O189        O  0.72716120  0.50143434  0.11950545    -0.74600
O190        O  0.75422888  0.50854452  0.17827048    -0.78100
O191        O  0.86174143  0.62207735  0.14261034    -0.78700
C192        C  0.72799213  0.49284238  0.15616130     0.96500
O193        O  0.79968544  0.50594985  0.11515406    -0.76700
O194        O  0.72876951  0.56512962  0.10413296    -0.81900
C195        C  0.81031228  0.60838864  0.03667753     0.99100
C196        C  0.73885805  0.59669044  0.10949741     1.05100
O197        O  0.82900684  0.62270502  0.06735552    -0.77500
C198        C  0.79333662  0.50297284  0.07716551     1.03400
Fe199      Fe  0.80715770  0.54101449  0.67140840     1.65800
Fe200      Fe  0.75683235  0.54079301  0.59289405     1.73200
Fe201      Fe  0.82369993  0.61698790  0.62708673     1.54400
O202        O  0.82156504  0.62312734  0.68963306    -0.81300
O203        O  0.78414982  0.56818541  0.54259750    -0.79600
O204        O  0.81189023  0.57371380  0.71778097    -0.83800
O205        O  0.85905930  0.56834624  0.65988441    -0.78600
O206        O  0.78205506  0.62353398  0.62198584    -0.80400
O207        O  0.77068832  0.50362756  0.57945121    -0.83200
C208        C  0.87943877  0.59775112  0.64524668     0.97600
C209        C  0.81747640  0.60430013  0.72052609     1.05000
O210        O  0.79584796  0.56628084  0.63044171    -1.12100
O211        O  0.72422804  0.51043150  0.63850634    -0.74600
O212        O  0.75661757  0.50971023  0.68904779    -0.78100
O213        O  0.86953291  0.61783488  0.63178346    -0.78700
C214        C  0.72764367  0.50027586  0.67335136     0.96500
O215        O  0.80467206  0.50586232  0.62986878    -0.76700
O216        O  0.73787783  0.57451866  0.60050712    -0.81900
C217        C  0.81084240  0.59684908  0.53583255     0.99100
C218        C  0.75128563  0.60588190  0.61099068     1.05100
O219        O  0.82888033  0.61693836  0.56408492    -0.77500
C220        C  0.78959828  0.49366526  0.59654397     1.03400
Fe221      Fe  0.45083344  0.21033837  0.24568302     1.65800
Fe222      Fe  0.46350564  0.26316253  0.32548874     1.73200
Fe223      Fe  0.38260942  0.20471898  0.29828399     1.54400
O224        O  0.37273331  0.20404025  0.23553094    -0.81300
O225        O  0.44299707  0.23243121  0.37566037    -0.79600
O226        O  0.42054081  0.21469131  0.20266968    -0.83800
O227        O  0.41553920  0.15861196  0.25396802    -0.78600
O228        O  0.38371416  0.25097843  0.30095751    -0.80400
O229        O  0.50124640  0.24905521  0.32413396    -0.83200
C230        C  0.38872737  0.14162002  0.27543911     0.97600
C231        C  0.39011749  0.20915852  0.20284342     1.05000
O232        O  0.43211930  0.22594061  0.28967971    -1.12100
O233        O  0.48551311  0.29566265  0.27691317    -0.74600
O234        O  0.48918431  0.26035181  0.23173182    -0.78100
O235        O  0.37537590  0.15571812  0.29624927    -0.78700
C236        C  0.49757090  0.29035093  0.24455767     0.96500
O237        O  0.48271616  0.20361821  0.28377194    -0.76700
O238        O  0.43194263  0.28440252  0.33358096    -0.81900
C239        C  0.41224281  0.21290072  0.38660051     0.99100
C240        C  0.40315213  0.27824050  0.32009330     1.05100
O241        O  0.38701614  0.20322999  0.36232215    -0.77500
C242        C  0.50382281  0.22429300  0.30913418     1.03400
Fe243      Fe  0.45165637  0.21769041  0.75642239     1.65800
Fe244      Fe  0.44439115  0.26546941  0.83278350     1.73200
Fe245      Fe  0.37276725  0.19729305  0.79246375     1.54400
O246        O  0.37042920  0.20176838  0.72949583    -0.81300
O247        O  0.41134465  0.23831565  0.88009498    -0.79600
O248        O  0.41951722  0.20703246  0.70737954    -0.83800
O249        O  0.42842501  0.16636496  0.77205514    -0.78600
O250        O  0.36427336  0.23857801  0.79836344    -0.80400
O251        O  0.47744524  0.24969111  0.85450211    -0.83200
C252        C  0.39767384  0.14411323  0.77980994     0.97600
C253        C  0.39002378  0.20293677  0.70081933     1.05000
O254        O  0.42288057  0.22686296  0.79385222    -1.12100
O255        O  0.48123062  0.29862098  0.79142652    -0.74600
O256        O  0.47822082  0.26795446  0.73663871    -0.78100
O257        O  0.37457469  0.15203251  0.78605972    -0.78700
C258        C  0.49043419  0.29625169  0.75545908     0.96500
O259        O  0.48797781  0.22686558  0.79994985    -0.76700
O260        O  0.41328010  0.28501013  0.81569302    -0.81900
C261        C  0.38500880  0.20897425  0.88494947     0.99100
C262        C  0.38194912  0.27052422  0.80589656     1.05100
O263        O  0.36941885  0.18929649  0.85525092    -0.77500
C264        C  0.49383118  0.23725975  0.83651940     1.03400
C265        C  0.37946043  0.19008259  0.49758991     0.19100
C266        C  0.36226887  0.20173601  0.52318775    -0.19000
C267        C  0.36580243  0.20186636  0.56575212    -0.11300
C268        C  0.38643234  0.18996723  0.58346040     0.21300
C269        C  0.40188449  0.17649785  0.55784573    -0.20600
C270        C  0.39825545  0.17624646  0.51560989    -0.11500
C271        C  0.39495231  0.19322121  0.62768098    -0.15600
C272        C  0.37822374  0.19927445  0.65792266    -0.29500
C273        C  0.37951579  0.19470885  0.45245749    -0.03700
C274        C  0.40717379  0.20170945  0.42969488    -0.40300
H275        H  0.34738769  0.21227060  0.51015693     0.12500
H276        H  0.35358117  0.21260563  0.58431904     0.12100
H277        H  0.41756343  0.16673833  0.57053751     0.11600
H278        H  0.41079878  0.16577239  0.49711219     0.11800
H279        H  0.41662486  0.19014105  0.63581421     0.14500
H280        H  0.35539036  0.20071897  0.65158294     0.13300
H281        H  0.35853149  0.19634899  0.43864978     0.11000
H282        H  0.42946857  0.20354708  0.44454274     0.13000
C283        C  0.37414330  0.20931010  0.00215859     0.19100
C284        C  0.37437608  0.23303218  0.03036496    -0.19000
C285        C  0.37405644  0.22726113  0.07243288    -0.11300
C286        C  0.37409221  0.19781126  0.08713167     0.21300
C287        C  0.37222664  0.17334430  0.05898427    -0.20600
C288        C  0.37198131  0.17882907  0.01698824    -0.11500
C289        C  0.38208606  0.19468318  0.13032827    -0.15600
C290        C  0.37486976  0.20857142  0.16272027    -0.29500
C291        C  0.38105008  0.21934661  0.95830735    -0.03700
C292        C  0.37266793  0.19700550  0.92711637    -0.40300
H293        H  0.37632839  0.25686407  0.01979532     0.12500
H294        H  0.37620694  0.24696462  0.09319894     0.12100
H295        H  0.37262615  0.15061780  0.06951031     0.11600
H296        H  0.37245097  0.16025958  0.99637234     0.11800
H297        H  0.39604817  0.18103773  0.13557694     0.14500
H298        H  0.35860041  0.21990961  0.15961305     0.13300
H299        H  0.39466435  0.24673308  0.95153002     0.11000
H300        H  0.35688623  0.16957688  0.93250992     0.13000
C301        C  0.57140027  0.38367145  0.73560784     0.19100
C302        C  0.59990956  0.40380296  0.76006708    -0.19000
C303        C  0.63058562  0.42929455  0.74276430    -0.11300
C304        C  0.63329914  0.43532444  0.70043882     0.21300
C305        C  0.60438673  0.41600624  0.67625944    -0.20600
C306        C  0.57380609  0.39052379  0.69351985    -0.11500
C307        C  0.66526413  0.46170993  0.68006245    -0.15600
C308        C  0.69667707  0.47592942  0.69656971    -0.29500
C309        C  0.54000446  0.35538724  0.75491081    -0.03700
C310        C  0.51752270  0.32707553  0.73456856    -0.40300
H311        H  0.59863702  0.39937779  0.79264655     0.12500
H312        H  0.65183024  0.44423165  0.76275269     0.12100
H313        H  0.60552326  0.42044127  0.64368720     0.11600
H314        H  0.55214975  0.37646446  0.67374808     0.11800
H315        H  0.66289225  0.46858261  0.64895557     0.14500
H316        H  0.70023069  0.46852652  0.72682661     0.13300
H317        H  0.53716257  0.35626171  0.78771829     0.11000
H318        H  0.52142431  0.32453417  0.70241384     0.13000
C319        C  0.82474961  0.61425885  0.83691808     0.19100
C320        C  0.84496426  0.61017622  0.86631366    -0.19000
C321        C  0.83946482  0.61264789  0.90780235    -0.11300
C322        C  0.81313889  0.61865374  0.92065570     0.21300
C323        C  0.79353296  0.62367866  0.89126882    -0.20600
C324        C  0.79947062  0.62186776  0.84972223    -0.11500
C325        C  0.80217459  0.61424405  0.96387135    -0.15600
C326        C  0.82359121  0.62145226  0.99541063    -0.29500
C327        C  0.82742483  0.60563609  0.79400676    -0.03700
C328        C  0.81878014  0.61815398  0.76166370    -0.40300
H329        H  0.86423467  0.60377061  0.85717523     0.12500
H330        H  0.85434601  0.60764405  0.92970869     0.12100
H331        H  0.77271261  0.62771351  0.90053661     0.11600
H332        H  0.78285280  0.62425891  0.82791162     0.11800
H333        H  0.77493350  0.60276139  0.96981701     0.14500
H334        H  0.85104278  0.63523153  0.99049647     0.13300
H335        H  0.83632479  0.58740061  0.78890279     0.11000
H336        H  0.81251743  0.63846325  0.76537925     0.13000
C337        C  0.80561319  0.60161170  0.41921666     0.19100
C338        C  0.83550670  0.60384121  0.40293788    -0.19000
C339        C  0.83986415  0.60362746  0.36075661    -0.11300
C340        C  0.81481424  0.60178619  0.33404096     0.21300
C341        C  0.78555464  0.60101121  0.35028691    -0.20600
C342        C  0.78092640  0.60063310  0.39250330    -0.11500
C343        C  0.81808835  0.59652027  0.29001707    -0.15600
C344        C  0.80397223  0.60588601  0.26014975    -0.29500
C345        C  0.79749218  0.59582162  0.46333955    -0.03700
C346        C  0.82110230  0.60703454  0.49299852    -0.40300
H347        H  0.85463675  0.60376854  0.42262730     0.12500
H348        H  0.86242405  0.60382768  0.34893710     0.12100
H349        H  0.76537227  0.59874600  0.33060423     0.11600
H350        H  0.75747870  0.59846392  0.40436613     0.11800
H351        H  0.83282010  0.58418647  0.28188438     0.14500
H352        H  0.79146983  0.62065550  0.26712073     0.13300
H353        H  0.77061582  0.58123634  0.47176999     0.11000
H354        H  0.84788813  0.62415897  0.48593701     0.13000
C355        C  0.58023294  0.35277721  0.19015610     0.19100
C356        C  0.61307560  0.35802448  0.19734251    -0.19000
C357        C  0.64182461  0.38894921  0.18603464    -0.11300
C358        C  0.63806836  0.41485016  0.16663675     0.21300
C359        C  0.60522165  0.40906444  0.15806998    -0.20600
C360        C  0.57646356  0.37842035  0.17014101    -0.11500
C361        C  0.66796982  0.44719885  0.15276143    -0.15600
C362        C  0.69764932  0.46260155  0.17312024    -0.29500
C363        C  0.55038698  0.32065767  0.20469947    -0.03700
C364        C  0.52348745  0.32063097  0.22232722    -0.40300
H365        H  0.61645947  0.33841434  0.21245018     0.12500
H366        H  0.66689699  0.39229277  0.19179322     0.12100
H367        H  0.60184193  0.42846703  0.14242243     0.11600
H368        H  0.55134580  0.37465094  0.16353960     0.11800
H369        H  0.66522728  0.45887380  0.12501911     0.14500
H370        H  0.69995081  0.45239957  0.20224106     0.13300
H371        H  0.55243778  0.29749464  0.20575817     0.11000
H372        H  0.52309887  0.34456582  0.22552878     0.13000
C373        C  0.80481607  0.42575797  0.04952746     0.19100
C374        C  0.80513679  0.39982033  0.07326034    -0.19000
C375        C  0.80100259  0.36978049  0.05526774    -0.11300
C376        C  0.79640924  0.36506534  0.01297277     0.21300
C377        C  0.79786098  0.39167160  0.98896572    -0.20600
C378        C  0.80199912  0.42171870  0.00692149    -0.11500
C379        C  0.79031189  0.33301189  0.99269247    -0.15600
C380        C  0.77602333  0.30221726  0.01157047    -0.29500
C381        C  0.80615529  0.45567082  0.07078088    -0.03700
C382        C  0.79790396  0.47772937  0.05325595    -0.40300
H383        H  0.80787108  0.40246393  0.10603632     0.12500
H384        H  0.80144975  0.35043477  0.07458957     0.15700
H385        H  0.79508875  0.38891621  0.95619982     0.11600
H386        H  0.80280544  0.44137373  0.98711173     0.11800
H387        H  0.79616612  0.33458602  0.96033188     0.14500
H388        H  0.76855586  0.29976162  0.04340613     0.13300
H389        H  0.81144729  0.45791968  0.10325194     0.11000
H390        H  0.79132513  0.47563876  0.02130135     0.13000
C391        C  0.56851269  0.22057431  0.86036997     0.19100
C392        C  0.58552000  0.20736868  0.83697903    -0.19000
C393        C  0.61201488  0.20368207  0.85346742    -0.11300
C394        C  0.62232553  0.21333561  0.89390897     0.21300
C395        C  0.60515010  0.22617433  0.91754007    -0.20600
C396        C  0.57866128  0.22996986  0.90101265    -0.11500
C397        C  0.65050184  0.21003287  0.91262932    -0.15600
C398        C  0.67629117  0.21065906  0.89103119    -0.29500
C399        C  0.54054262  0.22379745  0.84068333    -0.03700
C400        C  0.52098316  0.23493198  0.85900516    -0.40300
H401        H  0.57817059  0.19966842  0.80570423     0.12500
H402        H  0.62391027  0.19276986  0.83459107     0.12100
H403        H  0.61252089  0.23366945  0.94885731     0.11600
H404        H  0.56652258  0.24029127  0.92033346     0.11800
H405        H  0.65127843  0.20946345  0.94570774     0.14500
H406        H  0.67743698  0.21386156  0.85818375     0.13300
H407        H  0.53578514  0.21639789  0.80883684     0.11000
H408        H  0.52471361  0.24271448  0.89062901     0.13000
C409        C  0.78895190  0.17188983  0.65957676     0.19100
C410        C  0.76449041  0.15012925  0.68816421    -0.19000
C411        C  0.76997345  0.15663218  0.72980662    -0.11300
C412        C  0.79992290  0.18544461  0.74358479     0.21300
C413        C  0.82492422  0.20659133  0.71508255    -0.20600
C414        C  0.81969188  0.19971804  0.67338177    -0.11500
C415        C  0.80353986  0.19644378  0.78662041    -0.15600
C416        C  0.78963166  0.17436320  0.81802967    -0.29500
C417        C  0.77922847  0.16810139  0.61616921    -0.03700
C418        C  0.80146724  0.17868255  0.58478986    -0.40300
H419        H  0.74040581  0.12884792  0.67814479     0.12500
H420        H  0.74981940  0.14035300  0.75089726     0.12100
H421        H  0.84799855  0.22918240  0.72504435     0.11600
H422        H  0.83867279  0.21745356  0.65205136     0.11800
H423        H  0.81758948  0.22391344  0.79255401     0.14500
H424        H  0.77797458  0.14685359  0.81320104     0.13300
H425        H  0.75214006  0.15692256  0.60976033     0.11000
H426        H  0.82830346  0.18723444  0.58956784     0.13000
C427        C  0.78274175  0.17493579  0.15751381     0.19100
C428        C  0.76192823  0.14957369  0.18593432    -0.19000
C429        C  0.76655673  0.15611994  0.22777316    -0.11300
C430        C  0.79165204  0.18851554  0.24174160     0.21300
C431        C  0.81288602  0.21357213  0.21335976    -0.20600
C432        C  0.80877424  0.20678400  0.17164221    -0.11500
C433        C  0.79382197  0.19824694  0.28512649    -0.15600
C434        C  0.78805704  0.17643953  0.31623513    -0.29500
C435        C  0.77373710  0.16955727  0.11379316    -0.03700
C436        C  0.79665725  0.18469414  0.08348355    -0.40300
H437        H  0.74136259  0.12504806  0.17568638     0.12500
H438        H  0.74932905  0.13657607  0.24897599     0.12100
H439        H  0.83211576  0.23883227  0.22349695     0.11600
H440        H  0.82462316  0.22720238  0.15054177     0.11800
H441        H  0.80132977  0.22484309  0.29168895     0.14500
H442        H  0.78346968  0.15063722  0.31043517     0.13300
H443        H  0.74687086  0.15363755  0.10636510     0.11000
H444        H  0.82382515  0.19839661  0.08991029     0.13000
C445        C  0.78360702  0.35456736  0.51978730     0.19100
C446        C  0.81246378  0.38740102  0.52284793    -0.19000
C447        C  0.80915069  0.41574591  0.53410596    -0.11300
C448        C  0.77671058  0.41191118  0.54195955     0.21300
C449        C  0.74781198  0.37922384  0.53795650    -0.20600
C450        C  0.75117068  0.35078374  0.52730444    -0.11500
C451        C  0.77224830  0.44138625  0.55459738    -0.15600
C452        C  0.79523956  0.46684554  0.57801930    -0.29500
C453        C  0.78776500  0.32545390  0.50507438    -0.03700
C454        C  0.76625162  0.29237393  0.51526406    -0.40300
H455        H  0.83765918  0.39113659  0.51639136     0.12500
H456        H  0.83194879  0.44071170  0.53585522     0.12100
H457        H  0.72254431  0.37562493  0.54344207     0.11600
H458        H  0.72827901  0.32609004  0.52384714     0.11800
H459        H  0.74818792  0.44038569  0.54802319     0.14500
H460        H  0.81775978  0.46602025  0.58791621     0.13300
H461        H  0.80892187  0.33153524  0.48438848     0.11000
H462        H  0.74613599  0.28622810  0.53755390     0.13000
C463        C  0.58570425  0.23317248  0.35586816     0.19100
C464        C  0.59536541  0.23120992  0.39582541    -0.19000
C465        C  0.62329187  0.22651279  0.40304264    -0.11300
C466        C  0.64256670  0.22463119  0.37034551     0.21300
C467        C  0.63372713  0.22794360  0.33041585    -0.20600
C468        C  0.60522010  0.23169839  0.32315368    -0.11500
C469        C  0.67308609  0.22126291  0.37786210    -0.15600
C470        C  0.67285772  0.19953065  0.40625946    -0.29500
C471        C  0.55556130  0.23731814  0.34874859    -0.03700
C472        C  0.53306168  0.21965971  0.31939657    -0.40300
H473        H  0.58095654  0.23277133  0.42142175     0.12500
H474        H  0.63025487  0.22503428  0.43420440     0.12100
H475        H  0.64865541  0.22722274  0.30488002     0.11600
H476        H  0.59874209  0.23401041  0.29202593     0.11800
H477        H  0.69621466  0.23754701  0.36055847     0.14500
H478        H  0.64904173  0.18211096  0.42173221     0.13300
H479        H  0.55118706  0.25404637  0.36877704     0.11000
H480        H  0.53650656  0.20121360  0.30147371     0.13000
C481        C  0.65969913  0.67983557  0.56863204     0.19100
C482        C  0.69498661  0.69420585  0.57401229    -0.19000
C483        C  0.70939256  0.67322232  0.57990391    -0.11300
C484        C  0.68878000  0.63715597  0.58043595     0.21300
C485        C  0.65369999  0.62269191  0.57313772    -0.20600
C486        C  0.63919616  0.64375000  0.56749797    -0.11500
C487        C  0.70368125  0.61437240  0.58685515    -0.15600
C488        C  0.73171475  0.62423164  0.60960732    -0.29500
C489        C  0.64557505  0.70345997  0.56419015    -0.03700
C490        C  0.61307842  0.69447735  0.57341849    -0.40300
H491        H  0.71148633  0.72186193  0.57418421     0.12500
H492        H  0.73678027  0.68540517  0.58347223     0.12100
H493        H  0.63741607  0.59502700  0.57231993     0.11600
H494        H  0.61207263  0.63164259  0.56189315     0.11800
H495        H  0.69180576  0.58947248  0.57200852     0.14500
H496        H  0.74288092  0.64870747  0.62533689     0.13300
H497        H  0.66326709  0.72996216  0.55563336     0.11000
H498        H  0.59543539  0.66862030  0.58401480     0.13000
C499        C  0.67479540  0.01943748  0.50574300     0.19100
C500        C  0.64300853  0.99847014  0.52448136    -0.19000
C501        C  0.63170639  0.96368190  0.53241820    -0.11300
C502        C  0.65227074  0.94924368  0.52216098     0.21300
C503        C  0.68447372  0.97049455  0.50463010    -0.20600
C504        C  0.69561331  0.00510412  0.49638437    -0.11500
C505        C  0.64122056  0.91234696  0.52945473    -0.15600
C506        C  0.60826173  0.88748293  0.52936294    -0.29500
C507        C  0.68688527  0.05666064  0.49898068    -0.03700
C508        C  0.70938854  0.07494998  0.46933815    -0.40300
H509        H  0.62685233  0.00903435  0.53293136     0.12500
H510        H  0.60717709  0.94840411  0.54719788     0.12100
H511        H  0.70103964  0.96021094  0.49700979     0.11600
H512        H  0.72091952  0.02070380  0.48360235     0.11800
H513        H  0.66088154  0.90512802  0.53159515     0.14500
H514        H  0.58850287  0.89414423  0.52414753     0.13300
H515        H  0.67831941  0.06954452  0.52004574     0.11000
H516        H  0.71731638  0.06188408  0.44776089     0.13000
C517        C  0.64913584  0.67676433  0.08949848     0.19100
C518        C  0.63890689  0.64544087  0.10966386    -0.19000
C519        C  0.66169453  0.63297383  0.11445370    -0.11300
C520        C  0.69539014  0.65188832  0.09938894     0.21300
C521        C  0.70567892  0.68337142  0.07980631    -0.20600
C522        C  0.68296604  0.69572261  0.07489721    -0.11500
C523        C  0.72098238  0.64046384  0.10435362    -0.15600
C524        C  0.71275460  0.60743418  0.10907163    -0.29500
C525        C  0.62504818  0.69038361  0.08684246    -0.03700
C526        C  0.62850058  0.71389049  0.05882821    -0.40300
H527        H  0.61326524  0.63068330  0.12198542     0.12500
H528        H  0.65305211  0.60905217  0.13077927     0.12100
H529        H  0.73157544  0.69866348  0.06839362     0.11600
H530        H  0.69251634  0.72066673  0.06077328     0.11800
H531        H  0.74777378  0.65988386  0.10124483     0.14500
H532        H  0.68616329  0.58730845  0.10944174     0.13300
H533        H  0.60484803  0.68188993  0.10960375     0.11000
H534        H  0.64798264  0.72186130  0.03530830     0.13000
C535        C  0.63489457  0.95239928  0.99925337     0.19100
C536        C  0.62301547  0.97180468  0.97849668    -0.19000
C537        C  0.64494322  0.00683729  0.97013786    -0.11300
C538        C  0.67946541  0.02310873  0.98200191     0.21300
C539        C  0.69145873  0.00339297  0.00170221    -0.20600
C540        C  0.66955837  0.96859187  0.01031994    -0.11500
C541        C  0.70398381  0.06028450  0.97428493    -0.15600
C542        C  0.69455145  0.08422513  0.96906726    -0.29500
C543        C  0.61166993  0.91483101  0.00622795    -0.03700
C544        C  0.61631534  0.89774474  0.03707024    -0.40300
H545        H  0.59668294  0.95981306  0.96872559     0.12500
H546        H  0.63487454  0.02078945  0.95378072     0.12100
H547        H  0.71797808  0.01501747  0.01064698     0.11600
H548        H  0.68018747  0.95429119  0.02470414     0.11800
H549        H  0.73106057  0.06866793  0.97612537     0.14500
H550        H  0.66769647  0.07674816  0.96961322     0.13300
H551        H  0.59157764  0.90072214  0.98424799     0.11000
H552        H  0.63587415  0.91201920  0.05953196     0.13000
C553        C  0.59076603  0.80859933  0.84274641     0.19100
C554        C  0.61587499  0.80422087  0.82230691    -0.19000
C555        C  0.61577332  0.80226065  0.77958278    -0.11300
C556        C  0.59045638  0.80440804  0.75701222     0.21300
C557        C  0.56665396  0.81043196  0.77742797    -0.20600
C558        C  0.56696014  0.81275512  0.81966936    -0.11500
C559        C  0.58446232  0.79535015  0.71340548    -0.15600
C560        C  0.60873468  0.80083048  0.68572149    -0.29500
C561        C  0.58557700  0.80564743  0.88757270    -0.03700
C562        C  0.60650882  0.80398434  0.91551139    -0.40300
H563        H  0.63446889  0.80063015  0.83901093     0.12500
H564        H  0.63405143  0.79694829  0.76454853     0.12100
H565        H  0.54683236  0.81201884  0.76068473     0.11600
H566        H  0.54740175  0.81627562  0.83448395     0.11800
H567        H  0.55803779  0.78336640  0.70348324     0.14500
H568        H  0.63561474  0.81523931  0.69350749     0.13300
H569        H  0.56202200  0.80412042  0.89837887     0.11000
H570        H  0.63135271  0.80757779  0.90712285     0.13000
C571        C  0.60671011  0.78279719  0.25964760     0.19100
C572        C  0.60063205  0.75624875  0.28706394    -0.19000
C573        C  0.60214630  0.76176219  0.32906679    -0.11300
C574        C  0.60904723  0.79382035  0.34432254     0.21300
C575        C  0.61626546  0.82071148  0.31696158    -0.20600
C576        C  0.61549827  0.81541707  0.27492410    -0.11500
C577        C  0.60351480  0.79810214  0.38782800    -0.15600
C578        C  0.61031569  0.78240618  0.41831065    -0.29500
C579        C  0.59892397  0.77435290  0.21605203    -0.03700
C580        C  0.61366622  0.79705577  0.18534228    -0.40300
H581        H  0.59339195  0.73079344  0.27594175     0.12500
H582        H  0.59566560  0.74033740  0.34945750     0.12100
H583        H  0.62117829  0.84547531  0.32815664     0.11600
H584        H  0.61954844  0.83617112  0.25460063     0.11800
H585        H  0.59237574  0.81414720  0.39499758     0.14500
H586        H  0.62415608  0.76874228  0.41255211     0.13300
H587        H  0.57962815  0.74808107  0.20896425     0.11000
H588        H  0.63500552  0.82258242  0.19099294     0.13000
C589        C  0.95173509  0.29785027  0.93418173     0.19100
C590        C  0.97443004  0.28719512  0.92037526    -0.19000
C591        C  0.00925277  0.31072927  0.91606312    -0.11300
C592        C  0.02234639  0.34567925  0.92564989     0.21300
C593        C  0.99988874  0.35615114  0.94098882    -0.20600
C594        C  0.96491125  0.33258492  0.94505916    -0.11500
C595        C  0.05952382  0.37100273  0.92216760    -0.15600
C596        C  0.07986500  0.36719967  0.89508410    -0.29500
C597        C  0.91470228  0.27194112  0.93702791    -0.03700
C598        C  0.88999679  0.28027515  0.93391852    -0.40300
H599        H  0.96512312  0.26053496  0.91251539     0.12500
H600        H  0.02588456  0.30122048  0.90598092     0.12100
H601        H  0.00941169  0.38268664  0.94961537     0.11600
H602        H  0.94845660  0.34159212  0.95725181     0.11800
H603        H  0.07050355  0.39247228  0.94322708     0.14500
H604        H  0.06872683  0.34626079  0.87335924     0.13300
H605        H  0.90755355  0.24495941  0.93894318     0.11000
H606        H  0.89683144  0.30696942  0.92958525     0.13000
C607        C  0.35719199  0.34043029  0.82439481     0.19100
C608        C  0.35949228  0.35960918  0.85921871    -0.19000
C609        C  0.34116015  0.37720518  0.86190989    -0.11300
C610        C  0.32077968  0.37659583  0.82931888     0.21300
C611        C  0.31946233  0.35849933  0.79391125    -0.20600
C612        C  0.33719101  0.34028008  0.79155712    -0.11500
C613        C  0.30024756  0.39413432  0.83170962    -0.15600
C614        C  0.28241294  0.39243941  0.86538002    -0.29500
C615        C  0.37623546  0.32124762  0.82310765    -0.03700
C616        C  0.36461879  0.29114114  0.80349441    -0.40300
H617        H  0.37501985  0.36043542  0.88473226     0.12500
H618        H  0.34308154  0.39145406  0.88931620     0.12100
H619        H  0.30407780  0.35786723  0.76833766     0.11600
H620        H  0.33553629  0.32647091  0.76387408     0.11800
H621        H  0.29633040  0.40492231  0.80392061     0.14500
H622        H  0.28314855  0.37809954  0.89171947     0.13300
H623        H  0.39911184  0.33080910  0.84150619     0.11000
H624        H  0.34023776  0.27984530  0.78796840     0.13000
C625        C  0.41159646  0.63849830  0.97594482     0.19100
C626        C  0.37838083  0.63282685  0.98230458    -0.19000
C627        C  0.34988980  0.60203145  0.97013348    -0.11300
C628        C  0.35411052  0.57632310  0.95092164     0.21300
C629        C  0.38733688  0.58220545  0.94412727    -0.20600
C630        C  0.41577344  0.61282108  0.95661449    -0.11500
C631        C  0.32488692  0.54454320  0.93423979    -0.15600
C632        C  0.29238937  0.53064290  0.94774202    -0.29500
C633        C  0.44123570  0.67167754  0.98900450    -0.03700
C634        C  0.47138150  0.67481886  0.99985489    -0.40300
H635        H  0.37446482  0.65233756  0.99671829     0.12500
H636        H  0.32477178  0.59898203  0.97469102     0.12100
H637        H  0.39132885  0.56312677  0.92869000     0.11600
H638        H  0.44093975  0.61659921  0.95009918     0.11800
H639        H  0.33049972  0.53238446  0.90904572     0.14500
H640        H  0.28636458  0.54148733  0.97389768     0.13300
H641        H  0.43730407  0.69356264  0.99281515     0.11000
H642        H  0.47467617  0.65241542  0.99989935     0.13000
C643        C  0.02114650  0.34356436  0.39677104     0.19100
C644        C  0.00077887  0.30869855  0.40681359    -0.19000
C645        C  0.96554460  0.29395671  0.41127502    -0.11300
C646        C  0.94948872  0.31375616  0.40600673     0.21300
C647        C  0.96960932  0.34846857  0.39465580    -0.20600
C648        C  0.00519986  0.36339365  0.39031337    -0.11500
C649        C  0.91170249  0.29782726  0.41035567    -0.15600
C650        C  0.89386989  0.27099409  0.43564964    -0.29500
C651        C  0.05858946  0.35727825  0.39281156    -0.03700
C652        C  0.08263268  0.39075699  0.39442124    -0.40300
H653        H  0.01220504  0.29263956  0.41131723     0.12500
H654        H  0.95092630  0.26674420  0.41804197     0.12100
H655        H  0.95780476  0.36408575  0.38945842     0.11600
H656        H  0.01989264  0.39014113  0.38142448     0.11800
H657        H  0.89840649  0.30729563  0.39144664     0.14500
H658        H  0.90751340  0.26252569  0.45542699     0.13300
H659        H  0.06687956  0.33831225  0.39089574     0.11000
H660        H  0.07543911  0.41040306  0.39778482     0.13000
C661        C  0.31237937  0.35734978  0.34728797     0.19100
C662        C  0.34815156  0.37273080  0.34759152    -0.19000
C663        C  0.36414585  0.35341065  0.33889595    -0.11300
C664        C  0.34452130  0.31826038  0.32930627     0.21300
C665        C  0.30884669  0.30312612  0.32851595    -0.20600
C666        C  0.29294501  0.32228899  0.33734936    -0.11500
C667        C  0.35961699  0.29629172  0.31878836    -0.15600
C668        C  0.39155604  0.30341331  0.32803518    -0.29500
C669        C  0.29603351  0.37880655  0.35430751    -0.03700
C670        C  0.26338178  0.36540720  0.36690128    -0.40300
H671        H  0.36376910  0.39982994  0.35435526     0.12500
H672        H  0.39172803  0.36629176  0.33887826     0.12100
H673        H  0.29308002  0.27624627  0.32073951     0.11600
H674        H  0.26544938  0.30963891  0.33504312     0.11800
H675        H  0.34263052  0.27182235  0.30446596     0.14500
H676        H  0.40880136  0.32689984  0.34386200     0.13300
H677        H  0.31099174  0.40616129  0.34773830     0.11000
H678        H  0.24873423  0.33841988  0.37522372     0.13000
C679        C  0.19151240  0.40215866  0.67245100     0.19100
C680        C  0.21669671  0.40860400  0.64307341    -0.19000
C681        C  0.20871131  0.40466255  0.60165702    -0.11300
C682        C  0.17550265  0.39506142  0.58886539     0.21300
C683        C  0.15015147  0.38811079  0.61821824    -0.20600
C684        C  0.15793135  0.39113880  0.65976265    -0.11500
C685        C  0.16834052  0.39706303  0.54533839    -0.15600
C686        C  0.18189418  0.38727832  0.51522546    -0.29500
C687        C  0.20178066  0.41079268  0.71549447    -0.03700
C688        C  0.18162310  0.39334305  0.74724518    -0.40300
H689        H  0.24281570  0.41753554  0.65218167     0.12500
H690        H  0.22894645  0.41106065  0.57960165     0.12100
H691        H  0.12454156  0.38123433  0.60891653     0.11600
H692        H  0.13817518  0.38673293  0.68172929     0.11800
H693        H  0.15255215  0.40833440  0.53782118     0.14500
H694        H  0.19538409  0.37348138  0.52225109     0.13300
H695        H  0.22729603  0.43207426  0.72123494     0.11000
H696        H  0.15731698  0.37016311  0.74220272     0.13000
C697        C  0.18480422  0.38329114  0.17432302     0.19100
C698        C  0.20806044  0.38323832  0.14581721    -0.19000
C699        C  0.20199058  0.38282468  0.10408456    -0.11300
C700        C  0.17271245  0.38302823  0.09014285     0.21300
C701        C  0.14889033  0.38194086  0.11860504    -0.20600
C702        C  0.15469234  0.38180490  0.16036573    -0.11500
C703        C  0.16910604  0.38979508  0.04687855    -0.15600
C704        C  0.18197065  0.38035657  0.01562457    -0.29500
C705        C  0.19486852  0.38944960  0.21768552    -0.03700
C706        C  0.17259654  0.38021893  0.24896270    -0.40300
H707        H  0.23163464  0.38482789  0.15587115     0.12500
H708        H  0.22127860  0.38459015  0.08291789     0.12100
H709        H  0.12640364  0.38260013  0.10847717     0.11600
H710        H  0.13663066  0.38269788  0.18143228     0.11800
H711        H  0.15628588  0.40441177  0.04057271     0.14500
H712        H  0.19224104  0.36326258  0.02042957     0.13300
H713        H  0.22208166  0.40289130  0.22402712     0.11000
H714        H  0.14534423  0.36457087  0.24384686     0.13000
C715        C  0.36175518  0.56705786  0.43819458     0.19100
C716        C  0.39467160  0.57120170  0.43809228    -0.19000
C717        C  0.42278517  0.60269722  0.44895505    -0.11300
C718        C  0.41839214  0.63074654  0.45905286     0.21300
C719        C  0.38566721  0.62692408  0.45774401    -0.20600
C720        C  0.35752003  0.59528952  0.44780959    -0.11500
C721        C  0.44733499  0.66407002  0.47188752    -0.15600
C722        C  0.47109347  0.66567436  0.49758204    -0.29500
C723        C  0.33249221  0.53419972  0.42465346    -0.03700
C724        C  0.30082918  0.52219838  0.43986379    -0.40300
H725        H  0.39856001  0.54999245  0.42984742     0.12500
H726        H  0.44794738  0.60526176  0.44899092     0.12100
H727        H  0.38181909  0.64832283  0.46509549     0.11600
H728        H  0.33258377  0.59320615  0.44667001     0.11800
H729        H  0.44678862  0.68740062  0.46421221     0.14500
H730        H  0.46957604  0.64206717  0.50860514     0.13300
H731        H  0.33691083  0.52051195  0.40021590     0.11000
H732        H  0.29679886  0.53481618  0.46581543     0.13000
C733        C  0.34573674  0.04487076  0.77474332     0.19100
C734        C  0.31308542  0.02278401  0.75941442    -0.19000
C735        C  0.30214040  0.98810456  0.75274158    -0.11300
C736        C  0.32359477  0.97444395  0.76139869     0.21300
C737        C  0.35584371  0.99617278  0.77814673    -0.20600
C738        C  0.36700340  0.03115845  0.78448177    -0.11500
C739        C  0.31158437  0.93720574  0.75527241    -0.15600
C740        C  0.28997807  0.91953965  0.72503233    -0.29500
C741        C  0.35607967  0.08174578  0.78028028    -0.03700
C742        C  0.38869892  0.10750950  0.78018678    -0.40300
H743        H  0.29596348  0.03246327  0.75225650     0.12500
H744        H  0.27651381  0.97189424  0.74153283     0.12100
H745        H  0.37250544  0.98611358  0.78601958     0.11600
H746        H  0.39196332  0.04713511  0.79752472     0.11800
H747        H  0.31890468  0.92389632  0.77722463     0.14500
H748        H  0.28339857  0.93335636  0.70293305     0.13300
H749        H  0.33579729  0.08816162  0.78114106     0.11000
H750        H  0.40939326  0.10191832  0.77691203     0.13000
C751        C  0.97699143  0.65673446  0.64145812     0.19100
C752        C  0.99685969  0.69222950  0.64772149    -0.19000
C753        C  0.03188001  0.70740579  0.65408935    -0.11300
C754        C  0.04795729  0.68739118  0.65410783     0.21300
C755        C  0.02844081  0.65207413  0.64619637    -0.20600
C756        C  0.99312541  0.63671974  0.64024754    -0.11500
C757        C  0.08526309  0.70358245  0.66072201    -0.15600
C758        C  0.10139217  0.73008240  0.68647905    -0.29500
C759        C  0.93971053  0.64207370  0.63615253    -0.03700
C760        C  0.91634117  0.60936173  0.64524199    -0.40300
H761        H  0.98516122  0.70829503  0.64816933     0.12500
H762        H  0.04641999  0.73494869  0.65845026     0.12100
H763        H  0.04046138  0.63632621  0.64516994     0.11600
H764        H  0.97873194  0.60942840  0.63425357     0.11800
H765        H  0.09961105  0.69426896  0.64344390     0.14500
H766        H  0.08650865  0.73805462  0.70494774     0.13300
H767        H  0.93101623  0.65990922  0.62764792     0.11000
H768        H  0.92426593  0.59149869  0.65599201     0.13000
C769        C  0.22028306  0.58958040  0.80647793     0.19100
C770        C  0.22807996  0.60397514  0.76727564    -0.19000
C771        C  0.23122984  0.63615427  0.75972530    -0.11300
C772        C  0.22741165  0.65507846  0.79149320     0.21300
C773        C  0.22050878  0.64114123  0.83099769    -0.20600
C774        C  0.21654450  0.60848186  0.83838943    -0.11500
C775        C  0.23120772  0.68953714  0.78343345    -0.15600
C776        C  0.21751670  0.69492222  0.74991920    -0.29500
C777        C  0.21900589  0.55621122  0.81392699    -0.03700
C778        C  0.19729998  0.53277074  0.84084603    -0.40300
H779        H  0.23170333  0.59023294  0.74239271     0.12500
H780        H  0.23737649  0.64658778  0.72910205     0.12100
H781        H  0.21786306  0.65538522  0.85602360     0.11600
H782        H  0.21153607  0.59847555  0.86922643     0.11800
H783        H  0.24492667  0.71019459  0.80501617     0.14500
H784        H  0.20199855  0.67310104  0.73041606     0.13300
H785        H  0.23676554  0.55108759  0.79704220     0.11000
H786        H  0.17852299  0.53728055  0.85626409     0.13000
C787        C  0.37785428  0.80600191  0.64575548     0.19100
C788        C  0.39885909  0.79948180  0.67133051    -0.19000
C789        C  0.42458891  0.79420657  0.65501173    -0.11300
C790        C  0.42998310  0.79567708  0.61262596     0.21300
C791        C  0.40996553  0.80375964  0.58724918    -0.20600
C792        C  0.38407474  0.80874010  0.60353646    -0.11500
C793        C  0.45646382  0.78961928  0.59357125    -0.15600
C794        C  0.46946848  0.77142623  0.61115924    -0.29500
C795        C  0.34943497  0.80922868  0.66409383    -0.03700
C796        C  0.31982746  0.79942296  0.64463047    -0.40300
H797        H  0.39487926  0.79775662  0.70402079     0.12500
H798        H  0.44024761  0.78927849  0.67572248     0.12100
H799        H  0.41402873  0.80571257  0.55456923     0.11600
H800        H  0.36910503  0.81484124  0.58303522     0.11800
H801        H  0.46442788  0.79931328  0.56274537     0.14500
H802        H  0.46095275  0.76021680  0.64122036     0.13300
H803        H  0.35154918  0.81643882  0.69599461     0.11000
H804        H  0.31627886  0.78935940  0.61389217     0.13000
C805        C  0.31922440  0.97613707  0.23597860     0.19100
C806        C  0.30448070  0.99721539  0.23877084    -0.19000
C807        C  0.32460932  0.03240148  0.24550878    -0.11300
C808        C  0.36019285  0.04752385  0.24940576     0.21300
C809        C  0.37519229  0.02667312  0.24585587    -0.20600
C810        C  0.35488417  0.99116595  0.23954763    -0.11500
C811        C  0.38189828  0.08525173  0.25459089    -0.15600
C812        C  0.37075861  0.10372385  0.27526203    -0.29500
C813        C  0.29623841  0.93903168  0.22784341    -0.03700
C814        C  0.30314302  0.91376528  0.23693182    -0.40300
H815        H  0.27714932  0.98640533  0.23560227     0.12500
H816        H  0.31228092  0.04784056  0.24654071     0.12100
H817        H  0.40263116  0.03788518  0.24800911     0.11600
H818        H  0.36721162  0.97584387  0.23654838     0.11800
H819        H  0.40708889  0.09803611  0.24051141     0.14500
H820        H  0.34645477  0.09056454  0.29136348     0.13300
H821        H  0.27116063  0.93200671  0.21597877     0.11000
H822        H  0.32718612  0.91967839  0.25090135     0.13000
C823        C  0.97026659  0.66473893  0.15948169     0.19100
C824        C  0.98839198  0.69763135  0.17655698    -0.19000
C825        C  0.02365296  0.71348454  0.18218227    -0.11300
C826        C  0.04180139  0.69669980  0.17082628     0.21300
C827        C  0.02365823  0.66376845  0.15366868    -0.20600
C828        C  0.98832210  0.64790696  0.14799532    -0.11500
C829        C  0.07968974  0.71337344  0.17379345    -0.15600
C830        C  0.09912789  0.74194913  0.19558556    -0.29500
C831        C  0.93289501  0.64967241  0.15323571    -0.03700
C832        C  0.91110731  0.61592760  0.14788848    -0.40300
H833        H  0.97521862  0.71132638  0.18533323     0.12500
H834        H  0.03639091  0.73921757  0.19435872     0.12100
H835        H  0.03696271  0.65040666  0.14408818     0.11600
H836        H  0.97560760  0.62293529  0.13371434     0.11800
H837        H  0.09213817  0.70190579  0.15665085     0.14500
H838        H  0.08746600  0.75336858  0.21408298     0.13300
H839        H  0.92265081  0.66705793  0.15506999     0.11000
H840        H  0.92029108  0.59769220  0.14805109     0.13000
C841        C  0.21276792  0.82675595  0.91687555     0.19100
C842        C  0.23744611  0.84996326  0.94403003    -0.19000
C843        C  0.23134871  0.84669822  0.98620766    -0.11300
C844        C  0.20069605  0.81960076  0.00185573     0.21300
C845        C  0.17568992  0.79716422  0.97463208    -0.20600
C846        C  0.18145244  0.80085194  0.93259420    -0.11500
C847        C  0.19639186  0.81011193  0.04562689    -0.15600
C848        C  0.20855335  0.83235018  0.07695288    -0.29500
C849        C  0.22174128  0.82739388  0.87313956    -0.03700
C850        C  0.19870485  0.81662268  0.84282040    -0.40300
H851        H  0.26193182  0.86992243  0.93264397     0.12500
H852        H  0.25141305  0.86385855  0.00652717     0.12100
H853        H  0.15211947  0.77574724  0.98605703     0.11600
H854        H  0.16221571  0.78205583  0.91269442     0.11800
H855        H  0.18268979  0.78270157  0.05238349     0.14500
H856        H  0.21983609  0.85982958  0.07189805     0.13300
H857        H  0.24848201  0.83704628  0.86559094     0.11000
H858        H  0.17245975  0.80995670  0.84899771     0.13000
C859        C  0.20548790  0.83504421  0.41256660     0.19100
C860        C  0.18407602  0.83958118  0.43997883    -0.19000
C861        C  0.18776492  0.83723854  0.48224437    -0.11300
C862        C  0.21332093  0.83084737  0.49734635     0.21300
C863        C  0.23571301  0.82830434  0.46969192    -0.20600
C864        C  0.23199036  0.83053272  0.42796788    -0.11500
C865        C  0.21594301  0.82305243  0.54074671    -0.15600
C866        C  0.20214009  0.83049825  0.57293596    -0.29500
C867        C  0.20014552  0.83351886  0.36782207    -0.03700
C868        C  0.20072367  0.80809617  0.34683925    -0.40300
H869        H  0.16364922  0.84335127  0.42870452     0.12500
H870        H  0.16979616  0.83895446  0.50267186     0.12100
H871        H  0.25572049  0.82359313  0.48037208     0.11600
H872        H  0.24944148  0.82786157  0.40750586     0.11800
H873        H  0.23014490  0.80971982  0.54636009     0.14500
H874        H  0.18914637  0.84518574  0.56904967     0.13300
H875        H  0.19977789  0.85473016  0.35224768     0.11000
H876        H  0.20111499  0.78747748  0.36397536     0.13000
C877        C  0.22029201  0.64561503  0.28210453     0.19100
C878        C  0.24605335  0.63682831  0.27912017    -0.19000
C879        C  0.24007138  0.60452136  0.29204174    -0.11300
C880        C  0.20823019  0.58049596  0.30878667     0.21300
C881        C  0.18258763  0.58941142  0.31213244    -0.20600
C882        C  0.18840416  0.62152229  0.29868036    -0.11500
C883        C  0.20218018  0.54748368  0.32669196    -0.15600
C884        C  0.21787209  0.53040304  0.31342108    -0.29500
C885        C  0.22783786  0.68043128  0.26892687    -0.03700
C886        C  0.20386736  0.68678676  0.25381643    -0.40300
H887        H  0.27093700  0.65508561  0.26687236     0.12500
H888        H  0.26078527  0.59893991  0.29023981     0.12100
H889        H  0.15808312  0.57158550  0.32562974     0.11600
H890        H  0.16825714  0.62775765  0.30245194     0.11800
H891        H  0.18452852  0.53724217  0.35231722     0.14500
H892        H  0.23402826  0.53926284  0.28642367     0.13300
H893        H  0.25431847  0.70094444  0.26903978     0.11000
H894        H  0.17788507  0.66586994  0.25005168     0.13000
C895        C  0.42412348  0.78627355  0.11661140     0.19100
C896        C  0.40363329  0.79354182  0.09101369    -0.19000
C897        C  0.37535017  0.79470488  0.10656587    -0.11300
C898        C  0.36733669  0.78906163  0.14825926     0.21300
C899        C  0.38807247  0.78227634  0.17399056    -0.20600
C900        C  0.41609253  0.78063891  0.15834505    -0.11500
C901        C  0.33867102  0.79179090  0.16630206    -0.15600
C902        C  0.30959986  0.78355196  0.14636419    -0.29500
C903        C  0.45445733  0.78643574  0.09886073    -0.03700
C904        C  0.46881073  0.76875691  0.11434358    -0.40300
H905        H  0.40958955  0.79841230  0.05883172     0.12500
H906        H  0.36039627  0.80090930  0.08615575     0.12100
H907        H  0.38258086  0.77828204  0.20634374     0.11600
H908        H  0.43184760  0.77590418  0.17913984     0.11800
H909        H  0.34080248  0.79892046  0.19824722     0.14500
H910        H  0.30559693  0.77337567  0.11564992     0.13300
H911        H  0.46430453  0.80040733  0.07035730     0.11000
H912        H  0.45795180  0.75252327  0.14106185     0.13000
loop_ 
_geom_bond_atom_site_label_1 
_geom_bond_atom_site_label_2 
_geom_bond_distance 
_geom_bond_site_symmetry_2 
_ccdc_geom_bond_type 
Fe1          O17   2.050       .  S
Fe1           O7   2.077       .  S
Fe1          O14   2.094       .  S
Fe1           O6   2.039       .  S
Fe1          O12   1.961       .  S
Fe2           O5   2.035       .  S
Fe2           O9   2.087       .  S
Fe2          O13   2.039       .  S
Fe2          O18   2.089       .  S
Fe2          O12   1.961       .  S
Fe3          O21   2.111       .  S
Fe3           O8   2.044       .  S
Fe3          O15   2.056       .  S
Fe3           O4   2.106       .  S
Fe3          O12   1.967       .  S
O4           C11   1.277       .  A
O5           C19   1.266       .  A
O6           C11   1.268       .  A
O7           C10   1.270       .  A
O8           C20   1.265       .  A
O9           C22   1.271       .  A
C10          O15   1.266       .  A
C10         C830   1.477       .  S
C11         C848   1.481       .  S
O13          C16   1.268       .  A
O14          C16   1.274       .  A
C16         C902   1.474       .  S
O17          C22   1.263       .  A
O18          C20   1.270       .  A
C19          O21   1.278       .  A
C19         C868   1.471       .  S
C20         C814   1.482       .  S
C22         C886   1.475       .  S
Fe23         O39   2.042       .  S
Fe23         O29   2.082       .  S
Fe23         O36   2.068       .  S
Fe23         O28   2.042       .  S
Fe23         O34   1.969       .  S
Fe24         O27   2.053       .  S
Fe24         O31   2.110       .  S
Fe24         O35   2.061       .  S
Fe24         O40   2.104       .  S
Fe24         O34   1.982       .  S
Fe25         O43   2.083       .  S
Fe25         O30   2.042       .  S
Fe25         O37   2.045       .  S
Fe25         O26   2.095       .  S
Fe25         O34   1.969       .  S
O26          C33   1.272       .  A
O27          C41   1.267       .  A
O28          C33   1.266       .  A
O29          C32   1.271       .  A
O30          C42   1.266       .  A
O31          C44   1.279       .  A
C32          O37   1.264       .  A
C32         C758   1.472       .  S
C33         C866   1.485       .  S
O35          C38   1.268       .  A
O36          C38   1.267       .  A
C38         C796   1.476       .  S
O39          C44   1.266       .  A
O40          C42   1.277       .  A
C41          O43   1.271       .  A
C41         C850   1.477       .  S
C42         C740   1.475       .  S
C44         C776   1.479       .  S
Fe45         O61   2.063       .  S
Fe45         O51   2.065       .  S
Fe45         O58   2.066       .  S
Fe45         O50   2.074       .  S
Fe45         O56   1.973       .  S
Fe46         O49   2.067       .  S
Fe46         O53   2.070       .  S
Fe46         O57   2.061       .  S
Fe46         O62   2.069       .  S
Fe46         O56   1.973       .  S
Fe47         O65   2.069       .  S
Fe47         O52   2.065       .  S
Fe47         O59   2.070       .  S
Fe47         O48   2.067       .  S
Fe47         O56   1.968       .  S
O48          C55   1.270       .  A
O49          C63   1.273       .  A
O50          C55   1.272       .  A
O51          C54   1.265       .  A
O52          C64   1.266       .  A
O53          C66   1.269       .  A
C54          O59   1.269       .  A
C54         C652   1.484       .  S
C55         C686   1.473       .  S
O57          C60   1.270       .  A
O58          C60   1.269       .  A
C60         C724   1.473       .  S
O61          C66   1.269       .  A
O62          C64   1.267       .  A
C63          O65   1.271       .  A
C63         C706   1.475       .  S
C64         C670   1.479       .  S
C66         C884   1.479       .  S
Fe67         O83   2.056       .  S
Fe67         O73   2.091       .  S
Fe67         O80   2.093       .  S
Fe67         O72   2.047       .  S
Fe67         O78   1.975       .  S
Fe68         O71   2.054       .  S
Fe68         O75   2.088       .  S
Fe68         O79   2.053       .  S
Fe68         O84   2.089       .  S
Fe68         O78   1.976       .  S
Fe69         O87   2.084       .  S
Fe69         O74   2.051       .  S
Fe69         O81   2.048       .  S
Fe69         O70   2.078       .  S
Fe69         O78   1.969       .  S
O70          C77   1.269       .  A
O71          C85   1.271       .  A
O72          C77   1.267       .  A
O73          C76   1.274       .  A
O74          C86   1.263       .  A
O75          C88   1.273       .  A
C76          O81   1.265       .  A
C76         C596   1.476       .  S
C77         C704   1.472   1_556  S
O79          C82   1.270       .  A
O80          C82   1.275       .  A
C82         C632   1.482       .  S
O83          C88   1.266       .  A
O84          C86   1.270       .  A
C85          O87   1.273       .  A
C85         C688   1.475       .  S
C86         C614   1.475       .  S
C88         C778   1.482       .  S
Fe89        O105   2.040       .  S
Fe89         O95   2.104       .  S
Fe89        O102   2.101       .  S
Fe89         O94   2.037   1_554  S
Fe89        O100   1.954       .  S
Fe90         O93   2.040       .  S
Fe90         O97   2.100       .  S
Fe90        O101   2.050       .  S
Fe90        O106   2.092       .  S
Fe90        O100   1.955       .  S
Fe91        O109   2.095       .  S
Fe91         O96   2.049       .  S
Fe91        O103   2.047       .  S
Fe91         O92   2.102   1_554  S
Fe91        O100   1.948       .  S
O92          C99   1.276       .  A
O93         C107   1.268       .  A
O94          C99   1.269       .  A
O95          C98   1.274       .  A
O96         C108   1.265       .  A
O97         C110   1.276       .  A
C98         O103   1.264       .  A
C98         C544   1.479       .  S
C99         C562   1.480       .  S
O101        C104   1.265       .  A
O102        C104   1.275       .  A
C104        C634   1.477   1_554  S
O105        C110   1.268       .  A
O106        C108   1.273       .  A
C107        O109   1.275       .  A
C107        C580   1.475       .  S
C108        C526   1.475       .  S
C110        C904   1.477       .  S
Fe111       O127   2.054       .  S
Fe111       O117   2.054       .  S
Fe111       O124   2.071       .  S
Fe111       O116   2.057       .  S
Fe111       O122   1.980       .  S
Fe112       O115   2.047       .  S
Fe112       O119   2.073       .  S
Fe112       O123   2.054       .  S
Fe112       O128   2.062       .  S
Fe112       O122   1.977       .  S
Fe113       O131   2.082       .  S
Fe113       O118   2.074       .  S
Fe113       O125   2.085       .  S
Fe113       O114   2.073       .  S
Fe113       O122   1.988       .  S
O114        C121   1.269       .  A
O115        C129   1.268       .  A
O116        C121   1.269       .  A
O117        C120   1.265       .  A
O118        C130   1.270       .  A
O119        C132   1.268       .  A
C120        O125   1.273       .  A
C120        C506   1.479       .  S
C121        C578   1.471       .  S
O123        C126   1.265       .  A
O124        C126   1.270       .  A
C126        C722   1.471       .  S
O127        C132   1.266       .  A
O128        C130   1.266       .  A
C129        O131   1.271       .  A
C129        C560   1.478       .  S
C130        C490   1.481       .  S
C132        C794   1.479       .  S
Fe133       O149   2.059       .  S
Fe133       O139   2.089       .  S
Fe133       O146   2.086       .  S
Fe133       O138   2.056       .  S
Fe133       O144   1.978       .  S
Fe134       O137   2.044       .  S
Fe134       O141   2.089       .  S
Fe134       O145   2.051       .  S
Fe134       O150   2.091       .  S
Fe134       O144   1.973       .  S
Fe135       O153   2.086       .  S
Fe135       O140   2.046       .  S
Fe135       O147   2.043       .  S
Fe135       O136   2.082       .  S
Fe135       O144   1.966       .  S
O136        C143   1.273       .  A
O137        C151   1.270       .  A
O138        C143   1.271       .  A
O139        C142   1.270       .  A
O140        C152   1.262       .  A
O141        C154   1.273       .  A
C142        O147   1.262       .  A
C142        C650   1.475       .  S
C143        C434   1.476       .  S
O145        C148   1.267       .  A
O146        C148   1.274       .  A
C148        C470   1.475       .  S
O149        C154   1.269       .  A
O150        C152   1.271       .  A
C151        O153   1.273       .  A
C151        C418   1.473       .  S
C152        C508   1.477       .  S
C154        C454   1.482       .  S
Fe155       O171   2.070       .  S
Fe155       O161   2.049       .  S
Fe155       O168   2.061       .  S
Fe155       O160   2.070       .  S
Fe155       O166   1.958       .  S
Fe156       O159   2.072   1_556  S
Fe156       O163   2.061   1_556  S
Fe156       O167   2.076       .  S
Fe156       O172   2.059       .  S
Fe156       O166   1.960       .  S
Fe157       O175   2.065   1_556  S
Fe157       O162   2.099       .  S
Fe157       O169   2.095       .  S
Fe157       O158   2.067       .  S
Fe157       O166   1.962       .  S
O158        C165   1.269       .  A
O159        C173   1.270       .  A
O160        C165   1.271       .  A
O161        C164   1.265       .  A
O162        C174   1.277       .  A
O163        C176   1.269   1_554  A
C164        O169   1.275       .  A
C164        C598   1.480       .  S
C165        C416   1.474       .  S
O167        C170   1.270       .  A
O168        C170   1.267       .  A
C170        C398   1.477       .  S
O171        C176   1.272       .  A
O172        C174   1.270       .  A
C173        O175   1.267       .  A
C173        C436   1.474       .  S
C174        C542   1.483       .  S
C176        C380   1.475   1_556  S
Fe177       O193   2.078       .  S
Fe177       O183   2.054       .  S
Fe177       O190   2.061       .  S
Fe177       O182   2.078       .  S
Fe177       O188   1.954       .  S
Fe178       O181   2.070       .  S
Fe178       O185   2.054       .  S
Fe178       O189   2.062       .  S
Fe178       O194   2.049       .  S
Fe178       O188   1.951       .  S
Fe179       O197   2.070       .  S
Fe179       O184   2.095       .  S
Fe179       O191   2.086       .  S
Fe179       O180   2.069       .  S
Fe179       O188   1.953       .  S
O180        C187   1.271       .  A
O181        C195   1.270       .  A
O182        C187   1.274       .  A
O183        C186   1.266       .  A
O184        C196   1.276       .  A
O185        C198   1.268       .  A
C186        O191   1.273       .  A
C186        C832   1.478       .  S
C187        C344   1.478       .  S
O189        C192   1.269       .  A
O190        C192   1.267       .  A
C192        C362   1.472       .  S
O193        C198   1.273       .  A
O194        C196   1.265       .  A
C195        O197   1.269       .  A
C195        C326   1.476   1_554  S
C196        C524   1.477       .  S
C198        C382   1.474       .  S
Fe199       O215   2.046       .  S
Fe199       O205   2.066       .  S
Fe199       O212   2.076       .  S
Fe199       O204   2.052       .  S
Fe199       O210   1.981       .  S
Fe200       O203   2.055       .  S
Fe200       O207   2.096       .  S
Fe200       O211   2.059       .  S
Fe200       O216   2.088       .  S
Fe200       O210   1.988       .  S
Fe201       O219   2.080       .  S
Fe201       O206   2.048       .  S
Fe201       O213   2.056       .  S
Fe201       O202   2.080       .  S
Fe201       O210   1.979       .  S
O202        C209   1.271       .  A
O203        C217   1.269       .  A
O204        C209   1.268       .  A
O205        C208   1.266       .  A
O206        C218   1.264       .  A
O207        C220   1.274       .  A
C208        O213   1.267       .  A
C208        C760   1.477       .  S
C209        C328   1.476       .  S
O211        C214   1.268       .  A
O212        C214   1.270       .  A
C214        C308   1.482       .  S
O215        C220   1.264       .  A
O216        C218   1.273       .  A
C217        O219   1.271       .  A
C217        C346   1.477       .  S
C218        C488   1.476       .  S
C220        C452   1.478       .  S
Fe221       O237   2.042       .  S
Fe221       O227   2.076       .  S
Fe221       O234   2.089       .  S
Fe221       O226   2.045       .  S
Fe221       O232   1.966       .  S
Fe222       O225   2.043       .  S
Fe222       O229   2.090       .  S
Fe222       O233   2.047       .  S
Fe222       O238   2.085       .  S
Fe222       O232   1.962       .  S
Fe223       O241   2.116       .  S
Fe223       O228   2.051       .  S
Fe223       O235   2.055       .  S
Fe223       O224   2.107       .  S
Fe223       O232   1.964       .  S
O224        C231   1.277       .  A
O225        C239   1.268       .  A
O226        C231   1.268       .  A
O227        C230   1.271       .  A
O228        C240   1.265       .  A
O229        C242   1.272       .  A
C230        O235   1.267       .  A
C230        C812   1.475       .  S
C231        C290   1.483       .  S
O233        C236   1.267       .  A
O234        C236   1.275       .  A
C236        C364   1.467       .  S
O237        C242   1.262       .  A
O238        C240   1.269       .  A
C239        O241   1.280       .  A
C239        C274   1.478       .  S
C240        C668   1.483       .  S
C242        C472   1.474       .  S
Fe243       O259   2.062       .  S
Fe243       O249   2.061       .  S
Fe243       O256   2.059       .  S
Fe243       O248   2.064       .  S
Fe243       O254   1.970       .  S
Fe244       O247   2.070       .  S
Fe244       O251   2.071       .  S
Fe244       O255   2.081       .  S
Fe244       O260   2.068       .  S
Fe244       O254   1.980       .  S
Fe245       O263   2.083       .  S
Fe245       O250   2.077       .  S
Fe245       O257   2.081       .  S
Fe245       O246   2.084       .  S
Fe245       O254   1.974       .  S
O246        C253   1.271       .  A
O247        C261   1.270       .  A
O248        C253   1.269       .  A
O249        C252   1.267       .  A
O250        C262   1.271       .  A
O251        C264   1.269       .  A
C252        O257   1.273       .  A
C252        C742   1.482       .  S
C253        C272   1.488       .  S
O255        C258   1.272       .  A
O256        C258   1.267       .  A
C258        C310   1.478       .  S
O259        C264   1.269       .  A
O260        C262   1.272       .  A
C261        O263   1.272       .  A
C261        C292   1.485       .  S
C262        C616   1.480       .  S
C264        C400   1.481       .  S
C265        C273   1.495       .  S
C265        C266   1.406       .  A
C265        C270   1.407       .  A
C266        C267   1.407       .  A
C266        H275   1.083       .  S
C267        C268   1.409       .  A
C267        H276   1.081       .  S
C268        C271   1.492       .  S
C268        C269   1.404       .  A
C269        C270   1.396       .  A
C269        H277   1.084       .  S
C270        H278   1.082       .  S
C271        H279   1.088       .  S
C271        C272   1.351       .  D
C272        H280   1.085       .  S
C273        H281   1.087       .  S
C273        C274   1.347       .  D
C274        H282   1.086       .  S
C283        C291   1.492   1_554  S
C283        C284   1.407       .  A
C283        C288   1.406       .  A
C284        C285   1.403       .  A
C284        H293   1.083       .  S
C285        C286   1.405       .  A
C285        H294   1.082       .  S
C286        C289   1.488       .  S
C286        C287   1.406       .  A
C287        C288   1.401       .  A
C287        H295   1.083       .  S
C288        H296   1.082   1_554  S
C289        H297   1.088       .  S
C289        C290   1.351       .  D
C290        H298   1.086       .  S
C291        H299   1.087       .  S
C291        C292   1.351       .  D
C292        H300   1.085       .  S
C301        C309   1.490       .  S
C301        C302   1.405       .  A
C301        C306   1.407       .  A
C302        C303   1.401       .  A
C302        H311   1.083       .  S
C303        C304   1.408       .  A
C303        H312   1.081       .  S
C304        C307   1.490       .  S
C304        C305   1.404       .  A
C305        C306   1.398       .  A
C305        H313   1.083       .  S
C306        H314   1.081       .  S
C307        H315   1.087       .  S
C307        C308   1.349       .  D
C308        H316   1.084       .  S
C309        H317   1.087       .  S
C309        C310   1.348       .  D
C310        H318   1.085       .  S
C319        C327   1.481       .  S
C319        C320   1.404       .  A
C319        C324   1.406       .  A
C320        C321   1.398       .  A
C320        H329   1.083       .  S
C321        C322   1.405       .  A
C321        H330   1.083       .  S
C322        C325   1.480       .  S
C322        C323   1.403       .  A
C323        C324   1.399       .  A
C323        H331   1.083       .  S
C324        H332   1.082       .  S
C325        H333   1.088       .  S
C325        C326   1.346       .  D
C326        H334   1.086       .  S
C327        H335   1.088       .  S
C327        C328   1.347       .  D
C328        H336   1.086       .  S
C337        C345   1.483       .  S
C337        C338   1.405       .  A
C337        C342   1.405       .  A
C338        C339   1.398       .  A
C338        H347   1.082       .  S
C339        C340   1.404       .  A
C339        H348   1.083       .  S
C340        C343   1.483       .  S
C340        C341   1.406       .  A
C341        C342   1.399       .  A
C341        H349   1.082       .  S
C342        H350   1.084       .  S
C343        H351   1.087       .  S
C343        C344   1.347       .  D
C344        H352   1.086       .  S
C345        H353   1.088       .  S
C345        C346   1.347       .  D
C346        H354   1.086       .  S
C355        C363   1.476       .  S
C355        C356   1.402       .  A
C355        C360   1.405       .  A
C356        C357   1.396       .  A
C356        H365   1.083       .  S
C357        C358   1.405       .  A
C357        H366   1.083       .  S
C358        C361   1.476       .  S
C358        C359   1.402       .  A
C359        C360   1.396       .  A
C359        H367   1.083       .  S
C360        H368   1.083       .  S
C361        H369   1.087       .  S
C361        C362   1.345       .  D
C362        H370   1.086       .  S
C363        H371   1.087       .  S
C363        C364   1.341       .  D
C364        H372   1.087       .  S
C373        C381   1.487       .  S
C373        C374   1.404       .  A
C373        C378   1.409       .  A
C374        C375   1.397       .  A
C374        H383   1.084       .  S
C375        C376   1.406       .  A
C375        H384   1.082       .  S
C376        C379   1.482   1_554  S
C376        C377   1.402   1_554  A
C377        C378   1.396   1_556  A
C377        H385   1.084       .  S
C378        H386   1.080   1_554  S
C379        H387   1.087       .  S
C379        C380   1.347   1_556  D
C380        H388   1.085       .  S
C381        H389   1.087       .  S
C381        C382   1.346       .  D
C382        H390   1.083       .  S
C391        C399   1.490       .  S
C391        C392   1.406       .  A
C391        C396   1.408       .  A
C392        C393   1.397       .  A
C392        H401   1.084       .  S
C393        C394   1.405       .  A
C393        H402   1.081       .  S
C394        C397   1.487       .  S
C394        C395   1.404       .  A
C395        C396   1.400       .  A
C395        H403   1.083       .  S
C396        H404   1.080       .  S
C397        H405   1.087       .  S
C397        C398   1.348       .  D
C398        H406   1.085       .  S
C399        H407   1.087       .  S
C399        C400   1.350       .  D
C400        H408   1.083       .  S
C409        C417   1.478       .  S
C409        C410   1.403       .  A
C409        C414   1.405       .  A
C410        C411   1.396       .  A
C410        H419   1.084       .  S
C411        C412   1.405       .  A
C411        H420   1.082       .  S
C412        C415   1.480       .  S
C412        C413   1.404       .  A
C413        C414   1.399       .  A
C413        H421   1.083       .  S
C414        H422   1.082       .  S
C415        H423   1.087       .  S
C415        C416   1.345       .  D
C416        H424   1.086       .  S
C417        H425   1.088       .  S
C417        C418   1.345       .  D
C418        H426   1.086       .  S
C427        C435   1.481       .  S
C427        C428   1.404       .  A
C427        C432   1.405       .  A
C428        C429   1.400       .  A
C428        H437   1.083       .  S
C429        C430   1.405       .  A
C429        H438   1.083       .  S
C430        C433   1.480       .  S
C430        C431   1.402       .  A
C431        C432   1.396       .  A
C431        H439   1.083       .  S
C432        H440   1.082       .  S
C433        H441   1.087       .  S
C433        C434   1.344       .  D
C434        H442   1.086       .  S
C435        H443   1.088       .  S
C435        C436   1.345       .  D
C436        H444   1.086       .  S
C445        C453   1.488       .  S
C445        C446   1.403       .  A
C445        C450   1.408       .  A
C446        C447   1.401       .  A
C446        H455   1.083       .  S
C447        C448   1.409       .  A
C447        H456   1.082       .  S
C448        C451   1.491       .  S
C448        C449   1.403       .  A
C449        C450   1.401       .  A
C449        H457   1.083       .  S
C450        H458   1.082       .  S
C451        H459   1.087       .  S
C451        C452   1.343       .  D
C452        H460   1.086       .  S
C453        H461   1.087       .  S
C453        C454   1.348       .  D
C454        H462   1.086       .  S
C463        C471   1.481       .  S
C463        C464   1.400       .  A
C463        C468   1.408       .  A
C464        C465   1.398       .  A
C464        H473   1.083       .  S
C465        C466   1.407       .  A
C465        H474   1.083       .  S
C466        C469   1.480       .  S
C466        C467   1.401       .  A
C467        C468   1.399       .  A
C467        H475   1.083       .  S
C468        H476   1.083       .  S
C469        H477   1.086       .  S
C469        C470   1.343       .  D
C470        H478   1.087       .  S
C471        H479   1.087       .  S
C471        C472   1.342       .  D
C472        H480   1.087       .  S
C481        C489   1.489       .  S
C481        C482   1.402       .  A
C481        C486   1.410       .  A
C482        C483   1.397       .  A
C482        H491   1.084       .  S
C483        C484   1.409       .  A
C483        H492   1.082       .  S
C484        C487   1.490       .  S
C484        C485   1.403       .  A
C485        C486   1.402       .  A
C485        H493   1.083       .  S
C486        H494   1.081       .  S
C487        H495   1.087       .  S
C487        C488   1.345       .  D
C488        H496   1.086       .  S
C489        H497   1.087       .  S
C489        C490   1.346       .  D
C490        H498   1.085       .  S
C499        C507   1.491       .  S
C499        C500   1.403   1_545  A
C499        C504   1.409       .  A
C500        C501   1.402       .  A
C500        H509   1.083   1_565  S
C501        C502   1.410       .  A
C501        H510   1.082       .  S
C502        C505   1.489       .  S
C502        C503   1.402       .  A
C503        C504   1.398   1_565  A
C503        H511   1.084       .  S
C504        H512   1.082       .  S
C505        H513   1.087       .  S
C505        C506   1.344       .  D
C506        H514   1.086       .  S
C507        H515   1.087       .  S
C507        C508   1.345       .  D
C508        H516   1.086       .  S
C517        C525   1.490       .  S
C517        C518   1.404       .  A
C517        C522   1.409       .  A
C518        C519   1.402       .  A
C518        H527   1.084       .  S
C519        C520   1.409       .  A
C519        H528   1.081       .  S
C520        C523   1.487       .  S
C520        C521   1.401       .  A
C521        C522   1.395       .  A
C521        H529   1.084       .  S
C522        H530   1.081       .  S
C523        H531   1.088       .  S
C523        C524   1.344       .  D
C524        H532   1.086       .  S
C525        H533   1.087       .  S
C525        C526   1.346       .  D
C526        H534   1.085       .  S
C535        C543   1.493   1_556  S
C535        C536   1.404       .  A
C535        C540   1.409   1_556  A
C536        C537   1.404   1_565  A
C536        H545   1.083       .  S
C537        C538   1.410       .  A
C537        H546   1.081       .  S
C538        C541   1.493       .  S
C538        C539   1.403   1_556  A
C539        C540   1.398   1_545  A
C539        H547   1.084       .  S
C540        H548   1.082       .  S
C541        H549   1.087       .  S
C541        C542   1.347       .  D
C542        H550   1.085       .  S
C543        H551   1.087   1_554  S
C543        C544   1.347       .  D
C544        H552   1.086       .  S
C553        C561   1.484       .  S
C553        C554   1.409       .  A
C553        C558   1.403       .  A
C554        C555   1.405       .  A
C554        H563   1.081       .  S
C555        C556   1.407       .  A
C555        H564   1.082       .  S
C556        C559   1.478       .  S
C556        C557   1.399       .  A
C557        C558   1.390       .  A
C557        H565   1.084       .  S
C558        H566   1.084       .  S
C559        H567   1.088       .  S
C559        C560   1.344       .  D
C560        H568   1.086       .  S
C561        H569   1.088       .  S
C561        C562   1.348       .  D
C562        H570   1.084       .  S
C571        C579   1.480       .  S
C571        C572   1.404       .  A
C571        C576   1.405       .  A
C572        C573   1.397       .  A
C572        H581   1.084       .  S
C573        C574   1.404       .  A
C573        H582   1.083       .  S
C574        C577   1.478       .  S
C574        C575   1.403       .  A
C575        C576   1.398       .  A
C575        H583   1.083       .  S
C576        H584   1.082       .  S
C577        H585   1.088       .  S
C577        C578   1.343       .  D
C578        H586   1.086       .  S
C579        H587   1.088       .  S
C579        C580   1.346       .  D
C580        H588   1.086       .  S
C589        C597   1.490       .  S
C589        C590   1.401       .  A
C589        C594   1.410       .  A
C590        C591   1.397   1_655  A
C590        H599   1.084       .  S
C591        C592   1.409       .  A
C591        H600   1.082       .  S
C592        C595   1.491       .  S
C592        C593   1.403   1_455  A
C593        C594   1.402       .  A
C593        H601   1.084   1_655  S
C594        H602   1.081       .  S
C595        H603   1.087       .  S
C595        C596   1.345       .  D
C596        H604   1.086       .  S
C597        H605   1.087       .  S
C597        C598   1.344       .  D
C598        H606   1.086       .  S
C607        C615   1.487       .  S
C607        C608   1.404       .  A
C607        C612   1.407       .  A
C608        C609   1.400       .  A
C608        H617   1.083       .  S
C609        C610   1.406       .  A
C609        H618   1.083       .  S
C610        C613   1.485       .  S
C610        C611   1.403       .  A
C611        C612   1.400       .  A
C611        H619   1.083       .  S
C612        H620   1.082       .  S
C613        H621   1.087       .  S
C613        C614   1.343       .  D
C614        H622   1.087       .  S
C615        H623   1.087       .  S
C615        C616   1.347       .  D
C616        H624   1.086       .  S
C625        C633   1.489       .  S
C625        C626   1.405       .  A
C625        C630   1.407       .  A
C626        C627   1.401       .  A
C626        H635   1.083       .  S
C627        C628   1.407       .  A
C627        H636   1.082       .  S
C628        C631   1.487       .  S
C628        C629   1.404       .  A
C629        C630   1.399       .  A
C629        H637   1.083       .  S
C630        H638   1.082       .  S
C631        H639   1.087       .  S
C631        C632   1.349       .  D
C632        H640   1.085       .  S
C633        H641   1.087       .  S
C633        C634   1.346       .  D
C634        H642   1.085       .  S
C643        C651   1.488       .  S
C643        C644   1.401       .  A
C643        C648   1.410       .  A
C644        C645   1.393   1_455  A
C644        H653   1.084       .  S
C645        C646   1.407       .  A
C645        H654   1.082       .  S
C646        C649   1.492       .  S
C646        C647   1.405       .  A
C647        C648   1.406   1_655  A
C647        H655   1.083       .  S
C648        H656   1.081       .  S
C649        H657   1.087       .  S
C649        C650   1.346       .  D
C650        H658   1.086       .  S
C651        H659   1.087       .  S
C651        C652   1.347       .  D
C652        H660   1.085       .  S
C661        C669   1.492       .  S
C661        C662   1.406       .  A
C661        C666   1.407       .  A
C662        C663   1.404       .  A
C662        H671   1.083       .  S
C663        C664   1.409       .  A
C663        H672   1.081       .  S
C664        C667   1.489       .  S
C664        C665   1.403       .  A
C665        C666   1.395       .  A
C665        H673   1.084       .  S
C666        H674   1.081       .  S
C667        H675   1.087       .  S
C667        C668   1.349       .  D
C668        H676   1.084       .  S
C669        H677   1.087       .  S
C669        C670   1.348       .  D
C670        H678   1.085       .  S
C679        C687   1.480       .  S
C679        C680   1.402       .  A
C679        C684   1.406       .  A
C680        C681   1.397       .  A
C680        H689   1.083       .  S
C681        C682   1.405       .  A
C681        H690   1.083       .  S
C682        C685   1.479       .  S
C682        C683   1.403       .  A
C683        C684   1.400       .  A
C683        H691   1.083       .  S
C684        H692   1.082       .  S
C685        H693   1.087       .  S
C685        C686   1.344       .  D
C686        H694   1.087       .  S
C687        H695   1.088       .  S
C687        C688   1.344       .  D
C688        H696   1.086       .  S
C697        C705   1.480       .  S
C697        C698   1.403       .  A
C697        C702   1.406       .  A
C698        C699   1.397       .  A
C698        H707   1.083       .  S
C699        C700   1.404       .  A
C699        H708   1.082       .  S
C700        C703   1.478       .  S
C700        C701   1.403       .  A
C701        C702   1.397       .  A
C701        H709   1.083       .  S
C702        H710   1.082       .  S
C703        H711   1.088       .  S
C703        C704   1.345       .  D
C704        H712   1.086       .  S
C705        H713   1.087       .  S
C705        C706   1.345       .  D
C706        H714   1.085       .  S
C715        C723   1.479       .  S
C715        C716   1.402       .  A
C715        C720   1.406       .  A
C716        C717   1.399       .  A
C716        H725   1.083       .  S
C717        C718   1.406       .  A
C717        H726   1.083       .  S
C718        C721   1.478       .  S
C718        C719   1.400       .  A
C719        C720   1.395       .  A
C719        H727   1.083       .  S
C720        H728   1.083       .  S
C721        H729   1.087       .  S
C721        C722   1.341       .  D
C722        H730   1.087       .  S
C723        H731   1.087       .  S
C723        C724   1.345       .  D
C724        H732   1.087       .  S
C733        C741   1.489       .  S
C733        C734   1.402       .  A
C733        C738   1.410       .  A
C734        C735   1.395   1_545  A
C734        H743   1.084       .  S
C735        C736   1.408       .  A
C735        H744   1.082       .  S
C736        C739   1.491       .  S
C736        C737   1.404       .  A
C737        C738   1.405   1_565  A
C737        H745   1.083       .  S
C738        H746   1.081       .  S
C739        H747   1.086       .  S
C739        C740   1.345       .  D
C740        H748   1.087       .  S
C741        H749   1.087       .  S
C741        C742   1.346       .  D
C742        H750   1.085       .  S
C751        C759   1.482       .  S
C751        C752   1.401       .  A
C751        C756   1.409       .  A
C752        C753   1.393   1_655  A
C752        H761   1.084       .  S
C753        C754   1.406       .  A
C753        H762   1.083       .  S
C754        C757   1.483       .  S
C754        C755   1.403       .  A
C755        C756   1.402   1_455  A
C755        H763   1.083       .  S
C756        H764   1.082       .  S
C757        H765   1.087       .  S
C757        C758   1.344       .  D
C758        H766   1.087       .  S
C759        H767   1.087       .  S
C759        C760   1.345       .  D
C760        H768   1.085       .  S
C769        C777   1.487       .  S
C769        C770   1.401       .  A
C769        C774   1.409       .  A
C770        C771   1.399       .  A
C770        H779   1.083       .  S
C771        C772   1.408       .  A
C771        H780   1.083       .  S
C772        C775   1.490       .  S
C772        C773   1.403       .  A
C773        C774   1.404       .  A
C773        H781   1.083       .  S
C774        H782   1.083       .  S
C775        H783   1.086       .  S
C775        C776   1.343       .  D
C776        H784   1.088       .  S
C777        H785   1.087       .  S
C777        C778   1.345       .  D
C778        H786   1.087       .  S
C787        C795   1.485       .  S
C787        C788   1.404       .  A
C787        C792   1.406       .  A
C788        C789   1.399       .  A
C788        H797   1.083       .  S
C789        C790   1.407       .  A
C789        H798   1.081       .  S
C790        C793   1.486       .  S
C790        C791   1.404       .  A
C791        C792   1.398       .  A
C791        H799   1.083       .  S
C792        H800   1.082       .  S
C793        H801   1.087       .  S
C793        C794   1.349       .  D
C794        H802   1.085       .  S
C795        H803   1.087       .  S
C795        C796   1.346       .  D
C796        H804   1.086       .  S
C805        C813   1.485       .  S
C805        C806   1.402       .  A
C805        C810   1.408       .  A
C806        C807   1.393   1_565  A
C806        H815   1.084       .  S
C807        C808   1.405       .  A
C807        H816   1.082       .  S
C808        C811   1.485       .  S
C808        C809   1.404       .  A
C809        C810   1.403   1_545  A
C809        H817   1.083       .  S
C810        H818   1.081       .  S
C811        H819   1.087       .  S
C811        C812   1.345       .  D
C812        H820   1.087       .  S
C813        H821   1.087       .  S
C813        C814   1.348       .  D
C814        H822   1.085       .  S
C823        C831   1.488       .  S
C823        C824   1.402       .  A
C823        C828   1.408       .  A
C824        C825   1.397   1_655  A
C824        H833   1.084       .  S
C825        C826   1.409       .  A
C825        H834   1.080       .  S
C826        C829   1.491       .  S
C826        C827   1.405       .  A
C827        C828   1.400   1_455  A
C827        H835   1.083       .  S
C828        H836   1.081       .  S
C829        H837   1.087       .  S
C829        C830   1.347       .  D
C830        H838   1.083       .  S
C831        H839   1.087       .  S
C831        C832   1.346       .  D
C832        H840   1.084       .  S
C841        C849   1.486       .  S
C841        C842   1.407       .  A
C841        C846   1.404       .  A
C842        C843   1.403       .  A
C842        H851   1.083       .  S
C843        C844   1.405   1_556  A
C843        H852   1.083   1_556  S
C844        C847   1.482       .  S
C844        C845   1.403   1_554  A
C845        C846   1.397       .  A
C845        H853   1.083       .  S
C846        H854   1.082       .  S
C847        H855   1.088       .  S
C847        C848   1.348       .  D
C848        H856   1.086       .  S
C849        H857   1.087       .  S
C849        C850   1.348       .  D
C850        H858   1.086       .  S
C859        C867   1.486       .  S
C859        C860   1.404       .  A
C859        C864   1.404       .  A
C860        C861   1.408       .  A
C860        H869   1.083       .  S
C861        C862   1.411       .  A
C861        H870   1.081       .  S
C862        C865   1.485       .  S
C862        C863   1.401       .  A
C863        C864   1.390       .  A
C863        H871   1.084       .  S
C864        H872   1.084       .  S
C865        H873   1.087       .  S
C865        C866   1.348       .  D
C866        H874   1.085       .  S
C867        H875   1.086       .  S
C867        C868   1.344       .  D
C868        H876   1.088       .  S
C877        C885   1.485       .  S
C877        C878   1.403       .  A
C877        C882   1.407       .  A
C878        C879   1.399       .  A
C878        H887   1.083       .  S
C879        C880   1.407       .  A
C879        H888   1.082       .  S
C880        C883   1.484       .  S
C880        C881   1.403       .  A
C881        C882   1.399       .  A
C881        H889   1.083       .  S
C882        H890   1.082       .  S
C883        H891   1.087       .  S
C883        C884   1.347       .  D
C884        H892   1.086       .  S
C885        H893   1.087       .  S
C885        C886   1.344       .  D
C886        H894   1.086       .  S
C895        C903   1.482       .  S
C895        C896   1.404       .  A
C895        C900   1.405       .  A
C896        C897   1.397       .  A
C896        H905   1.083       .  S
C897        C898   1.404       .  A
C897        H906   1.082       .  S
C898        C901   1.479       .  S
C898        C899   1.404       .  A
C899        C900   1.398       .  A
C899        H907   1.083       .  S
C900        H908   1.082       .  S
C901        H909   1.087       .  S
C901        C902   1.347       .  D
C902        H910   1.086       .  S
C903        H911   1.087       .  S
C903        C904   1.348       .  D
C904        H912   1.085       .  S
