geometry optimzed in LAMMPS
_audit_creation_date              2020-12-01 
_audit_creation_method            'lammps2cif' 
_symmetry_space_group_name_H-M    'P1' 
_symmetry_Int_Tables_number       1 
_symmetry_cell_setting            triclinic 
loop_ 
_symmetry_equiv_pos_as_xyz 
  x,y,z 
_cell_length_a                    31.39468557 
_cell_length_b                    31.420149059950802 
_cell_length_c                    26.631451807061588 
_cell_angle_alpha                 90.13478812811327 
_cell_angle_beta                  90.00097730987375 
_cell_angle_gamma                 90.04055267690607 
loop_ 
_atom_site_label 
_atom_site_type_symbol 
_atom_site_fract_x 
_atom_site_fract_y 
_atom_site_fract_z 
_atom_site_charge 
O1          O  0.03967433  0.86362827  0.04087324    -0.72100
O2          O  0.95918286  0.77448782  0.04165608    -0.72300
O3          O  0.04633319  0.77982899  0.04032981    -0.72100
O4          O  0.95466506  0.85914263  0.04105573    -0.72100
O5          O  0.95840110  0.86306985  0.95960887    -0.72100
O6          O  0.03959703  0.77443675  0.95937934    -0.72100
O7          O  0.95239869  0.77919357  0.96066915    -0.72100
O8          O  0.04345695  0.85914478  0.95943228    -0.72200
V9          V  0.99980706  0.81894427  0.03952017     1.35200
V10         V  0.99862709  0.81863769  0.96121688     1.35200
C11         C  0.05600197  0.87572042  0.00018265     0.77200
C12         C  0.93915826  0.76469780  0.00208330     0.77200
C13         C  0.05968805  0.76506194  0.99902006     0.77100
C14         C  0.94193878  0.87532700  0.00024568     0.77100
O15         O  0.89556417  0.00520511  0.95922022    -0.72100
O16         O  0.80775066  0.92257526  0.95750431    -0.72300
O17         O  0.81142010  0.00996324  0.95863166    -0.72100
O18         O  0.89275972  0.92016943  0.95882454    -0.72100
O19         O  0.89551517  0.92325724  0.04038824    -0.72100
O20         O  0.80629736  0.00394087  0.03964844    -0.72100
O21         O  0.81142082  0.91673838  0.03863754    -0.72100
O22         O  0.89119193  0.00822363  0.04067363    -0.72200
V23         V  0.85151262  0.96429178  0.96001939     1.35200
V24         V  0.85077200  0.96319741  0.03833352     1.35200
C25         C  0.90775058  0.02124353  0.00017986     0.77200
C26         C  0.79743506  0.90291501  0.99715495     0.77200
C27         C  0.79660539  0.02355002  0.99979371     0.77100
C28         C  0.90876000  0.90752789  0.99976766     0.77100
O29         O  0.03906758  0.06615485  0.96102995    -0.72100
O30         O  0.95810629  0.15504862  0.96000675    -0.72300
O31         O  0.04538879  0.15000310  0.96182581    -0.72100
O32         O  0.95389930  0.07022289  0.95997904    -0.72100
O33         O  0.95635083  0.06653905  0.04148609    -0.72100
O34         O  0.03865765  0.15454292  0.04282136    -0.72100
O35         O  0.95118412  0.15071070  0.04097146    -0.72100
O36         O  0.04165915  0.06981638  0.04256239    -0.72200
V37         V  0.99890029  0.11067682  0.96221624     1.35200
V38         V  0.99712469  0.11072313  0.04050457     1.35200
C39         C  0.05498601  0.05377069  0.00184983     0.77200
C40         C  0.93807614  0.16522912  0.99949043     0.77200
C41         C  0.05885181  0.16430321  0.00331060     0.77100
C42         C  0.94057728  0.05402474  0.00052782     0.77100
O43         O  0.10142057  0.92433089  0.96004098    -0.72100
O44         O  0.18992118  0.00578954  0.96080533    -0.72300
O45         O  0.18542730  0.91871532  0.96090215    -0.72100
O46         O  0.10485664  0.00919498  0.96082951    -0.72100
O47         O  0.10104096  0.00571396  0.04229256    -0.72100
O48         O  0.18969442  0.92438330  0.04206819    -0.72100
O49         O  0.18529536  0.01144131  0.04195233    -0.72100
O50         O  0.10488791  0.92087785  0.04154784    -0.72200
V51         V  0.14573925  0.96470669  0.96213167     1.35200
V52         V  0.14556671  0.96546461  0.04048080     1.35200
C53         C  0.08875018  0.90824351  0.00061667     0.77200
C54         C  0.20003842  0.02505353  0.00083914     0.77200
C55         C  0.19977925  0.90495316  0.00213211     0.77100
C56         C  0.08828590  0.02162516  0.00163235     0.77100
C57         C  0.14987898  0.69187832  0.95536167     0.86200
C58         C  0.10576287  0.71260020  0.95622080    -0.54000
C59         C  0.09909272  0.73949327  0.99562912     0.09100
C60         C  0.13803423  0.74359854  0.03116908     0.20100
C61         C  0.18141009  0.72902168  0.95697988    -0.54700
C62         C  0.17565400  0.75633365  0.99599111     0.09200
C63         C  0.15392664  0.67055044  0.00721951    -0.54300
C64         C  0.14701908  0.69710914  0.04715334     0.09800
H65         H  0.08194469  0.70693865  0.92734999     0.14300
H66         H  0.13301511  0.76588468  0.06304157     0.00100
H67         H  0.20751178  0.73234490  0.93048442     0.14600
H68         H  0.16092629  0.63729270  0.01300923     0.14400
C69         C  0.27359510  0.81547741  0.04532614     0.86200
C70         C  0.25320432  0.85967441  0.04395431    -0.54000
C71         C  0.22575897  0.86584196  0.00506937     0.09100
C72         C  0.22095404  0.82640988  0.97033048     0.20100
C73         C  0.23606604  0.78424727  0.04517846    -0.54700
C74         C  0.20833282  0.78952146  0.00648641     0.09200
C75         C  0.29418661  0.81030925  0.99306875    -0.54300
C76         C  0.26715645  0.81665909  0.95352748     0.09800
H77         H  0.25927986  0.88386409  0.07230550     0.14300
H78         H  0.19827721  0.83108080  0.93882579     0.00100
H79         H  0.23296114  0.75852191  0.07213537     0.14600
H80         H  0.32730648  0.80281903  0.98669352     0.14400
C81         C  0.48114367  0.80412154  0.45120252     0.02000
C82         C  0.52599093  0.80611888  0.45669732     0.02000
C83         C  0.54297900  0.80829247  0.50542428    -0.18500
C84         C  0.51644480  0.80834546  0.54817146     0.02000
C85         C  0.47161042  0.80657591  0.54248734     0.02000
C86         C  0.45466829  0.80459627  0.49386626    -0.18500
H87         H  0.42038053  0.80329590  0.48910963     0.04000
H88         H  0.57725484  0.80970908  0.51022128     0.04000
C89         C  0.72519930  0.81219207  0.95210456     0.86200
C90         C  0.74515742  0.85663396  0.95400800    -0.54000
C91         C  0.77164334  0.86346977  0.99370039     0.09100
C92         C  0.77630833  0.82414856  0.02844685     0.20100
C93         C  0.76354019  0.78153372  0.95312001    -0.54700
C94         C  0.79031687  0.78749916  0.99273848     0.09200
C95         C  0.70389412  0.80625559  0.00357708    -0.54300
C96         C  0.73016348  0.81258839  0.04390330     0.09800
H97         H  0.73943572  0.88054229  0.92536352     0.14300
H98         H  0.79832336  0.82899984  0.06059338     0.00100
H99         H  0.76818022  0.75504922  0.92774083     0.14600
H100        H  0.67032146  0.79862720  0.00753699     0.14400
C101        C  0.84959927  0.69078634  0.04533677     0.86200
C102        C  0.89335420  0.71221609  0.04497452    -0.54000
C103        C  0.89993067  0.73900047  0.00561622     0.09100
C104        C  0.86123107  0.74262895  0.96983617     0.20100
C105        C  0.81748099  0.72758175  0.04350724    -0.54700
C106        C  0.82324046  0.75490946  0.00448464     0.09200
C107        C  0.84595152  0.66945315  0.99326744    -0.54300
C108        C  0.85273610  0.69617979  0.95361762     0.09800
H109        H  0.91710186  0.70689573  0.07398698     0.14300
H110        H  0.86625012  0.76493071  0.93809813     0.00100
H111        H  0.79110846  0.73065202  0.06970267     0.14600
H112        H  0.83857680  0.63624337  0.98712640     0.14400
C113        C  0.27351210  0.11473459  0.95744243     0.86200
C114        C  0.25398660  0.07016072  0.95949200    -0.54000
C115        C  0.22633537  0.06396227  0.99815635     0.09100
C116        C  0.22042903  0.10367163  0.03200137     0.20100
C117        C  0.23516221  0.14518770  0.95661897    -0.54700
C118        C  0.20722955  0.13974474  0.99526188     0.09200
C119        C  0.29345657  0.12143856  0.00989824    -0.54300
C120        C  0.26596050  0.11553671  0.04908318     0.09800
H121        H  0.26049745  0.04583528  0.93144649     0.14300
H122        H  0.19758001  0.09911608  0.06337534     0.00100
H123        H  0.23188694  0.17076370  0.92948953     0.14600
H124        H  0.32636878  0.12966912  0.01663578     0.14400
C125        C  0.14895654  0.23656541  0.04957642     0.86200
C126        C  0.10502351  0.21555028  0.04772352    -0.54000
C127        C  0.09832887  0.19001004  0.00713852     0.09100
C128        C  0.13759770  0.18685897  0.97173930     0.20100
C129        C  0.18028587  0.19890769  0.04713782    -0.54700
C130        C  0.17479226  0.17297277  0.00668357     0.09200
C131        C  0.15371725  0.25911380  0.99878606    -0.54300
C132        C  0.14797190  0.23360112  0.95754340     0.09800
H133        H  0.08121900  0.22009998  0.07686963     0.14300
H134        H  0.13304521  0.16527173  0.93912485     0.00100
H135        H  0.20587979  0.19311270  0.07341052     0.14600
H136        H  0.16012725  0.29299189  0.99616744     0.14400
C137        C  0.15029627  0.48464604  0.54934619     0.02000
C138        C  0.14976577  0.43964224  0.54526583     0.02000
C139        C  0.14912112  0.42157756  0.49696018    -0.18500
C140        C  0.14921998  0.44711768  0.45346779     0.02000
C141        C  0.14915991  0.49204486  0.45782050     0.02000
C142        C  0.14942335  0.51006567  0.50591651    -0.18500
H143        H  0.14972241  0.54444367  0.50967537     0.04000
H144        H  0.14902916  0.38721677  0.49305949     0.04000
C145        C  0.48105498  0.12947240  0.55009243     0.02000
C146        C  0.52587904  0.12883566  0.54429366     0.02000
C147        C  0.54287909  0.12846946  0.49559958    -0.18500
C148        C  0.51649481  0.12838393  0.45281179     0.02000
C149        C  0.47156737  0.12797870  0.45855512     0.02000
C150        C  0.45459397  0.12874350  0.50736871    -0.18500
H151        H  0.42029763  0.12878857  0.51224495     0.04000
H152        H  0.57720001  0.12818585  0.49089363     0.04000
C153        C  0.72488991  0.11415601  0.04490422     0.86200
C154        C  0.74363930  0.06930280  0.04190018    -0.54000
C155        C  0.77090902  0.06291320  0.00291598     0.09100
C156        C  0.77713843  0.10282867  0.96951888     0.20100
C157        C  0.76366686  0.14406708  0.04565096    -0.54700
C158        C  0.79101057  0.13873924  0.00637747     0.09200
C159        C  0.70453450  0.12131540  0.99277998    -0.54300
C160        C  0.73166215  0.11537479  0.95316948     0.09800
H161        H  0.73692441  0.04487045  0.06962450     0.14300
H162        H  0.79968016  0.09817278  0.93784629     0.00100
H163        H  0.76740452  0.16952371  0.07300386     0.14600
H164        H  0.67154903  0.12950531  0.98655751     0.14400
C165        C  0.84793623  0.23620318  0.95136364     0.86200
C166        C  0.89238294  0.21647465  0.95458973    -0.54000
C167        C  0.89890579  0.19129583  0.99543058     0.09100
C168        C  0.85922019  0.18762658  0.02994367     0.20100
C169        C  0.81744343  0.19772584  0.95354565    -0.54700
C170        C  0.82297417  0.17235179  0.99444619     0.09200
C171        C  0.84160749  0.25910678  0.00180474    -0.54300
C172        C  0.84750174  0.23424052  0.04336964     0.09800
H173        H  0.91648338  0.22120351  0.92582507     0.14300
H174        H  0.86376747  0.16650691  0.06284983     0.00100
H175        H  0.79195292  0.19145054  0.92724714     0.14600
H176        H  0.83440623  0.29284701  0.00397797     0.14400
C177        C  0.85041755  0.48405435  0.45180738     0.02000
C178        C  0.85070731  0.43918220  0.45675241     0.02000
C179        C  0.85106454  0.42171010  0.50530192    -0.18500
C180        C  0.85145482  0.44788273  0.54839727     0.02000
C181        C  0.85198436  0.49273724  0.54313995     0.02000
C182        C  0.85136334  0.51009653  0.49474980    -0.18500
H183        H  0.85135386  0.54440796  0.49037776     0.04000
H184        H  0.85087939  0.38741414  0.50966402     0.04000
C185        C  0.85098088  0.41030052  0.41192509    -0.03600
C186        C  0.81986847  0.37838080  0.40630762    -0.09400
C187        C  0.81868079  0.35292983  0.36287765    -0.17100
C188        C  0.84872081  0.35877099  0.32447346     0.25100
C189        C  0.88032099  0.38994409  0.33035884    -0.18700
C190        C  0.88159453  0.41530512  0.37374713    -0.07600
C191        C  0.84687225  0.33340994  0.27878090    -0.14100
C192        C  0.84558002  0.31342536  0.23970985    -0.13800
C193        C  0.84410684  0.29141608  0.19164450     0.25000
C194        C  0.87008115  0.25593637  0.18220926    -0.19200
C195        C  0.87020909  0.23635294  0.13465550    -0.07700
C196        C  0.84445473  0.25204574  0.09559402    -0.03800
C197        C  0.81744484  0.28684292  0.10606111    -0.09100
C198        C  0.81742871  0.30635528  0.15343313    -0.16700
H199        H  0.79588941  0.37382687  0.43503731     0.11400
H200        H  0.79404112  0.32899449  0.35903999     0.10700
H201        H  0.90390060  0.39484702  0.30123325     0.10700
H202        H  0.90632546  0.43915129  0.37734817     0.11200
H203        H  0.89094436  0.24390957  0.21132493     0.11200
H204        H  0.89165609  0.20997997  0.12803198     0.11200
H205        H  0.79637408  0.29932138  0.07751812     0.11400
H206        H  0.79691356  0.33350146  0.16003423     0.10200
C207        C  0.84420341  0.26647748  0.90682245    -0.03600
C208        C  0.81404180  0.26131238  0.86795957    -0.09400
C209        C  0.81362244  0.28898477  0.82696467    -0.17100
C210        C  0.84309374  0.32222396  0.82392469     0.25100
C211        C  0.87257553  0.32835553  0.86255142    -0.18700
C212        C  0.87300192  0.30087478  0.90369136    -0.07600
C213        C  0.84425488  0.34863851  0.77996427    -0.14100
C214        C  0.84562818  0.36845781  0.74134169    -0.13800
C215        C  0.84756162  0.38942876  0.69349784     0.25000
C216        C  0.88113075  0.38051893  0.66049533    -0.19200
C217        C  0.88226441  0.39940210  0.61307209    -0.07700
C218        C  0.84995495  0.42759041  0.59840302    -0.03800
C219        C  0.81635327  0.43645473  0.63166150    -0.09100
C220        C  0.81519054  0.41745615  0.67903600    -0.16700
H221        H  0.79089172  0.23605091  0.86796518     0.11400
H222        H  0.79065747  0.28398459  0.79712755     0.10700
H223        H  0.89562364  0.35396344  0.86055380     0.10700
H224        H  0.89647354  0.30596221  0.93290844     0.11200
H225        H  0.90622818  0.35872072  0.67127644     0.11200
H226        H  0.90844571  0.39230833  0.58792220     0.12400
H227        H  0.79099788  0.45789872  0.62078512     0.11400
H228        H  0.78894454  0.42434235  0.70417375     0.10200
C229        C  0.55561532  0.12847624  0.58813406    -0.03600
C230        C  0.58491018  0.09500641  0.59410132    -0.09400
C231        C  0.61198564  0.09364633  0.63600803    -0.17100
C232        C  0.61051720  0.12593169  0.67242134     0.25100
C233        C  0.58180265  0.15973066  0.66625794    -0.18700
C234        C  0.55461151  0.16104363  0.62445338    -0.07600
C235        C  0.63767683  0.12404480  0.71654939    -0.14100
C236        C  0.65869455  0.12308775  0.75479985    -0.13800
C237        C  0.68066897  0.12321513  0.80282109     0.25000
C238        C  0.66976626  0.15360585  0.83913020    -0.19200
C239        C  0.68776302  0.15204323  0.88717756    -0.07700
C240        C  0.71710622  0.11999252  0.90002210    -0.03800
C241        C  0.72954891  0.09070754  0.86277381    -0.09100
C242        C  0.71124690  0.09216392  0.81456490    -0.16700
H243        H  0.58627022  0.06951599  0.56669985     0.11400
H244        H  0.63387256  0.06725069  0.64015170     0.10700
H245        H  0.58020354  0.18496255  0.69398577     0.10700
H246        H  0.53262370  0.18736521  0.62053415     0.11200
H247        H  0.64645442  0.17797286  0.83070852     0.11200
H248        H  0.67806846  0.17554900  0.91471429     0.11200
H249        H  0.75189481  0.06558752  0.87157427     0.11400
H250        H  0.72012210  0.06841977  0.78693210     0.10200
C251        C  0.53721196  0.12813366  0.40290441    -0.03600
C252        C  0.56643197  0.16031052  0.39051084    -0.09400
C253        C  0.58720511  0.15976207  0.34416416    -0.17100
C254        C  0.57909174  0.12699031  0.30980991     0.25100
C255        C  0.54992234  0.09484031  0.32183875    -0.18700
C256        C  0.52911959  0.09533128  0.36826321    -0.07600
C257        C  0.60161926  0.12588917  0.26284967    -0.14100
C258        C  0.62178631  0.12505934  0.22438610    -0.13800
C259        C  0.64709888  0.12373562  0.17944357     0.25000
C260        C  0.62837637  0.13129111  0.13271373    -0.19200
C261        C  0.65285456  0.12919943  0.08891288    -0.07700
C262        C  0.69671412  0.11936946  0.09122937    -0.03800
C263        C  0.71511745  0.11252545  0.13883298    -0.09100
C264        C  0.69055180  0.11458989  0.18244595    -0.16700
H265        H  0.57311693  0.18581138  0.41678078     0.11400
H266        H  0.60981111  0.18470995  0.33527109     0.10700
H267        H  0.54360478  0.06921518  0.29557958     0.10700
H268        H  0.50712712  0.06993027  0.37742745     0.11200
H269        H  0.59470837  0.13852544  0.13006171     0.11200
H270        H  0.63663956  0.13493560  0.05400076     0.11200
H271        H  0.74865960  0.10495084  0.14211432     0.11400
H272        H  0.70543093  0.10877145  0.21849975     0.10200
C273        C  0.15082924  0.25074551  0.90498696    -0.03600
C274        C  0.17773415  0.28552133  0.89416011    -0.09400
C275        C  0.17799660  0.30433772  0.84650368    -0.17100
C276        C  0.15162909  0.28882535  0.80820783     0.25100
C277        C  0.12571938  0.25329095  0.81796352    -0.18700
C278        C  0.12539304  0.23433028  0.86588150    -0.07600
C279        C  0.15055336  0.31053001  0.75988754    -0.14100
C280        C  0.15047274  0.33107268  0.72119330    -0.13800
C281        C  0.15092739  0.35754824  0.67628657     0.25000
C282        C  0.11957395  0.35278364  0.63912140    -0.19200
C283        C  0.11951396  0.37911341  0.59649739    -0.07700
C284        C  0.15067358  0.41093598  0.59029403    -0.03800
C285        C  0.18248055  0.41503712  0.62730705    -0.09100
C286        C  0.18245341  0.38877592  0.66994364    -0.16700
H287        H  0.19862492  0.29851872  0.92267136     0.11400
H288        H  0.19848229  0.33148865  0.83974390     0.10700
H289        H  0.10509875  0.24074427  0.78885193     0.10700
H290        H  0.10412654  0.20786734  0.87272231     0.11200
H291        H  0.09493372  0.32889786  0.64323620     0.11200
H292        H  0.09468021  0.37509245  0.56865493     0.11200
H293        H  0.20738187  0.43863039  0.62324403     0.11400
H294        H  0.20703846  0.39293436  0.69806934     0.10200
C295        C  0.15292129  0.26725360  0.09375695    -0.03600
C296        C  0.12164995  0.29910017  0.09963978    -0.09400
C297        C  0.12199416  0.32612542  0.14129550    -0.17100
C298        C  0.15412595  0.32239080  0.17725399     0.25100
C299        C  0.18638669  0.29228378  0.17097732    -0.18700
C300        C  0.18596829  0.26495460  0.12959917    -0.07600
C301        C  0.15317515  0.34808840  0.22176621    -0.14100
C302        C  0.15241186  0.36729966  0.26083541    -0.13800
C303        C  0.15164730  0.38775986  0.30896630     0.25000
C304        C  0.18384575  0.37924424  0.34384962    -0.19200
C305        C  0.18270236  0.39823556  0.39123820    -0.07700
C306        C  0.14941545  0.42602072  0.40394740    -0.03800
C307        C  0.11698282  0.43416165  0.36896340    -0.09100
C308        C  0.11816725  0.41514544  0.32156375    -0.16700
H309        H  0.09621956  0.30230597  0.07242119     0.11400
H310        H  0.09692668  0.34949945  0.14576460     0.10700
H311        H  0.21160354  0.28944985  0.19857360     0.10700
H312        H  0.21166512  0.24245114  0.12671085     0.11200
H313        H  0.20974672  0.35789826  0.33443876     0.11200
H314        H  0.20800070  0.39174168  0.41777711     0.11200
H315        H  0.09089087  0.45526859  0.37838572     0.11400
H316        H  0.09296521  0.42164059  0.29486739     0.10200
C317        C  0.44169208  0.12708798  0.41471144    -0.03600
C318        C  0.44435708  0.15778480  0.37645172    -0.09400
C319        C  0.41698800  0.15604094  0.33482817    -0.17100
C320        C  0.38622316  0.12380398  0.33078327     0.25100
C321        C  0.38285309  0.09355412  0.36924611    -0.18700
C322        C  0.41023706  0.09526704  0.41092566    -0.07600
C323        C  0.35897615  0.12145754  0.28668288    -0.14100
C324        C  0.33818810  0.12053127  0.24821477    -0.13800
C325        C  0.31658756  0.12110444  0.19990633     0.25000
C326        C  0.28619698  0.09006968  0.18708992    -0.19200
C327        C  0.26800560  0.08934662  0.13876842    -0.07700
C328        C  0.28035697  0.11936050  0.10243896    -0.03800
C329        C  0.30967791  0.15123595  0.11628100    -0.09100
C330        C  0.32754472  0.15208317  0.16445170    -0.16700
H331        H  0.46776078  0.18305283  0.37871772     0.11400
H332        H  0.42002117  0.17976758  0.30557691     0.10700
H333        H  0.35932917  0.06841734  0.36683711     0.10700
H334        H  0.40738847  0.07127329  0.43985426     0.11200
H335        H  0.27729723  0.06583920  0.21401103     0.11200
H336        H  0.24575412  0.06428951  0.12914586     0.11200
H337        H  0.31940792  0.17519353  0.08943752     0.11400
H338        H  0.35074568  0.17642096  0.17365535     0.10200
C339        C  0.30238794  0.11978634  0.91174624    -0.03600
C340        C  0.34688130  0.12597361  0.91515394    -0.09400
C341        C  0.37179299  0.12899355  0.87181494    -0.17100
C342        C  0.35290865  0.12584805  0.82447050     0.25100
C343        C  0.30900553  0.11948712  0.82041979    -0.18700
C344        C  0.28402185  0.11634407  0.86359637    -0.07600
C345        C  0.37853339  0.12859093  0.77992891    -0.14100
C346        C  0.39875480  0.13017199  0.74157689    -0.13800
C347        C  0.42098366  0.13097082  0.69446908     0.25000
C348        C  0.41296441  0.16359568  0.66005924    -0.19200
C349        C  0.43273446  0.16313581  0.61308151    -0.07700
C350        C  0.46082896  0.13011378  0.60022516    -0.03800
C351        C  0.46894445  0.09759143  0.63501778    -0.09100
C352        C  0.44916683  0.09809601  0.68200294    -0.16700
H353        H  0.36328941  0.12787687  0.95054534     0.11400
H354        H  0.40587509  0.13357242  0.87527682     0.10700
H355        H  0.29407540  0.11675249  0.78386719     0.10700
H356        H  0.25010911  0.11101360  0.85948164     0.11200
H357        H  0.39105579  0.18906712  0.66930426     0.11200
H358        H  0.42616147  0.18848341  0.58671039     0.11200
H359        H  0.49017504  0.07161553  0.62553496     0.11400
H360        H  0.45534310  0.07257205  0.70827725     0.10200
C361        C  0.85518910  0.67989957  0.90094155    -0.03600
C362        C  0.83888220  0.70323892  0.86023980    -0.09400
C363        C  0.83904867  0.68576036  0.81152686    -0.17100
C364        C  0.85605494  0.64503513  0.80291346     0.25100
C365        C  0.87364645  0.62245885  0.84304036    -0.18700
C366        C  0.87329079  0.63965687  0.89144647    -0.07600
C367        C  0.85477021  0.62524993  0.75371098    -0.14100
C368        C  0.85447965  0.60493312  0.71496617    -0.13800
C369        C  0.85464020  0.57773155  0.67091231     0.25000
C370        C  0.88590827  0.54619752  0.66542231    -0.19200
C371        C  0.88532296  0.51875355  0.62383407    -0.07700
C372        C  0.85324445  0.52223361  0.58719445    -0.03800
C373        C  0.82233511  0.55433266  0.59254834    -0.09100
C374        C  0.82294338  0.58175343  0.63416798    -0.16700
H375        H  0.82494342  0.73433964  0.86625197     0.11400
H376        H  0.82541273  0.70371280  0.78081661     0.10700
H377        H  0.88722204  0.59114716  0.83704084     0.10700
H378        H  0.88718217  0.62125946  0.92160811     0.11200
H379        H  0.91063546  0.54264507  0.69347249     0.11200
H380        H  0.90988204  0.49475806  0.62025528     0.11200
H381        H  0.79730933  0.55771753  0.56484009     0.11400
H382        H  0.79848122  0.60584922  0.63788256     0.10200
C383        C  0.84423679  0.66266390  0.09141968    -0.03600
C384        C  0.84177922  0.61782052  0.08885117    -0.09400
C385        C  0.83939162  0.59356123  0.13260115    -0.17100
C386        C  0.83950429  0.61347571  0.17950343     0.25100
C387        C  0.84185639  0.65777593  0.18277675    -0.18700
C388        C  0.84435079  0.68214070  0.13916419    -0.07600
C389        C  0.83876881  0.58841588  0.22437856    -0.14100
C390        C  0.83969200  0.56835388  0.26272890    -0.13800
C391        C  0.84260727  0.54619763  0.30955750     0.25000
C392        C  0.87734684  0.55382327  0.34122579    -0.19200
C393        C  0.87991489  0.53338266  0.38754184    -0.07700
C394        C  0.84786151  0.50493452  0.40235820    -0.03800
C395        C  0.81310831  0.49725436  0.37039230    -0.09100
C396        C  0.81052874  0.51781557  0.32405615    -0.16700
H397        H  0.84281696  0.60065314  0.05383189     0.11400
H398        H  0.83805788  0.55917681  0.12984130     0.10700
H399        H  0.84232143  0.67347299  0.21905405     0.10700
H400        H  0.84691454  0.71640074  0.14263647     0.11200
H401        H  0.90226907  0.57580587  0.33026220     0.11200
H402        H  0.90690516  0.53960235  0.41181558     0.11200
H403        H  0.78792643  0.47566703  0.38154955     0.11400
H404        H  0.78347817  0.51186871  0.29979401     0.10200
C405        C  0.55547892  0.80562260  0.41239614    -0.03600
C406        C  0.58499256  0.83876989  0.40507192    -0.09400
C407        C  0.61108917  0.83959734  0.36219139    -0.17100
C408        C  0.60840736  0.80712848  0.32603423     0.25100
C409        C  0.57959581  0.77359310  0.33363226    -0.18700
C410        C  0.55349249  0.77275280  0.37643671    -0.07600
C411        C  0.63449749  0.80843740  0.28083191    -0.14100
C412        C  0.65483211  0.80880568  0.24196585    -0.13800
C413        C  0.67659890  0.80804643  0.19367520     0.25000
C414        C  0.66449725  0.77822738  0.15718035    -0.19200
C415        C  0.68304051  0.77881966  0.10932198    -0.07700
C416        C  0.71421249  0.80928512  0.09676918    -0.03800
C417        C  0.72750242  0.83815357  0.13410702    -0.09100
C418        C  0.70866741  0.83767332  0.18210260    -0.16700
H419        H  0.58716895  0.86453029  0.43206012     0.11400
H420        H  0.63309439  0.86578546  0.35704445     0.10700
H421        H  0.57706640  0.74816523  0.30624639     0.10700
H422        H  0.53143708  0.74658678  0.38131105     0.11200
H423        H  0.64003105  0.75493217  0.16538786     0.11200
H424        H  0.67253251  0.75564588  0.08181540     0.11200
H425        H  0.75117845  0.86213791  0.12561330     0.11400
H426        H  0.71851777  0.86098191  0.20982224     0.10200
C427        C  0.53643087  0.81001256  0.59832381    -0.03600
C428        C  0.56498349  0.77796896  0.61274102    -0.09400
C429        C  0.58284763  0.77835454  0.66070491    -0.17100
C430        C  0.57248406  0.81085263  0.69457238     0.25100
C431        C  0.54446603  0.84326073  0.68022582    -0.18700
C432        C  0.52653061  0.84289799  0.63219752    -0.07600
C433        C  0.59164943  0.81119858  0.74348687    -0.14100
C434        C  0.61057973  0.81018441  0.78274781    -0.13800
C435        C  0.63702744  0.80807830  0.82662506     0.25000
C436        C  0.62991051  0.83535272  0.86724105    -0.19200
C437        C  0.65800766  0.83538750  0.90791233    -0.07700
C438        C  0.69376307  0.80819492  0.90867159    -0.03800
C439        C  0.69984363  0.78016211  0.86781299    -0.09100
C440        C  0.67165443  0.78019888  0.82728308    -0.16700
H441        H  0.57289518  0.75236396  0.58709095     0.11400
H442        H  0.60471679  0.75328704  0.67141537     0.10700
H443        H  0.53654346  0.86872275  0.70607176     0.10700
H444        H  0.50485479  0.86809019  0.62146592     0.11200
H445        H  0.60326106  0.85722939  0.86699512     0.11200
H446        H  0.65244168  0.85747733  0.93849453     0.11200
H447        H  0.72662641  0.75888841  0.86548474     0.11400
H448        H  0.67750871  0.75910834  0.79576188     0.10200
C449        C  0.28330032  0.81743498  0.90051021    -0.03600
C450        C  0.32415324  0.83401581  0.89036846    -0.09400
C451        C  0.34161623  0.83208527  0.84211754    -0.17100
C452        C  0.31874154  0.81375448  0.80252958     0.25100
C453        C  0.27735559  0.79839923  0.81164749    -0.18700
C454        C  0.25962863  0.80046763  0.86026718    -0.07600
C455        C  0.33883276  0.81022362  0.75343943    -0.14100
C456        C  0.35925945  0.80827866  0.71472184    -0.13800
C457        C  0.38634798  0.80685952  0.67038063     0.25000
C458        C  0.38342381  0.83857597  0.63353540    -0.19200
C459        C  0.41075271  0.83812458  0.59177683    -0.07700
C460        C  0.44181985  0.80618949  0.58637496    -0.03800
C461        C  0.44429931  0.77416703  0.62310799    -0.09100
C462        C  0.41684469  0.77454990  0.66474761    -0.16700
H463        H  0.34293358  0.84844536  0.91997143     0.11400
H464        H  0.37338084  0.84449413  0.83584758     0.10700
H465        H  0.25905187  0.78425668  0.78142105     0.10700
H466        H  0.22808615  0.78764319  0.86664066     0.11200
H467        H  0.36023440  0.86389337  0.63726976     0.11200
H468        H  0.40816602  0.86314249  0.56404425     0.11200
H469        H  0.46763515  0.74897475  0.61963037     0.11400
H470        H  0.41969505  0.74981722  0.69282194     0.10200
C471        C  0.30191826  0.80999849  0.09124349    -0.03600
C472        C  0.28336499  0.81509685  0.13909201    -0.09400
C473        C  0.30793555  0.81186385  0.18250836    -0.17100
C474        C  0.35144795  0.80328423  0.17888788     0.25100
C475        C  0.37034522  0.79765268  0.13192887    -0.18700
C476        C  0.34590144  0.80092009  0.08836796    -0.07600
C477        C  0.37682444  0.80088941  0.22341502    -0.14100
C478        C  0.39733254  0.79984718  0.26144126    -0.13800
C479        C  0.42009016  0.79985632  0.30798216     0.25000
C480        C  0.41298454  0.76738425  0.34281739    -0.19200
C481        C  0.43319878  0.76867543  0.38942502    -0.07700
C482        C  0.46074803  0.80240994  0.40137368    -0.03800
C483        C  0.46798325  0.83475775  0.36611586    -0.09100
C484        C  0.44779295  0.83339164  0.31947585    -0.16700
H485        H  0.24971621  0.82200919  0.14273518     0.11400
H486        H  0.29303584  0.81627412  0.21884846     0.10700
H487        H  0.40411678  0.79097604  0.12894247     0.10700
H488        H  0.36228505  0.79650283  0.05327178     0.11200
H489        H  0.39142251  0.74142477  0.33420710     0.11200
H490        H  0.42735035  0.74348187  0.41624001     0.11200
H491        H  0.48879559  0.86124154  0.37499534     0.11400
H492        H  0.45320496  0.85877148  0.29276455     0.10200
C493        C  0.14460136  0.68027290  0.09968284    -0.03600
C494        C  0.12736067  0.63948128  0.10836665    -0.09400
C495        C  0.12797096  0.62135941  0.15625811    -0.17100
C496        C  0.14554397  0.64354841  0.19685875     0.25100
C497        C  0.16133422  0.68492706  0.18917810    -0.18700
C498        C  0.16065754  0.70328639  0.14093539    -0.07600
C499        C  0.14807178  0.62278822  0.24551538    -0.14100
C500        C  0.14944086  0.60221776  0.28405374    -0.13800
C501        C  0.15019742  0.57540446  0.32849927     0.25000
C502        C  0.18252209  0.54507670  0.33500937    -0.19200
C503        C  0.18242772  0.51815771  0.37703364    -0.07700
C504        C  0.14984349  0.52094252  0.41319270    -0.03800
C505        C  0.11786256  0.55181260  0.40681858    -0.09100
C506        C  0.11794066  0.57865352  0.36474612    -0.16700
H507        H  0.11353917  0.62124866  0.07791247     0.11400
H508        H  0.11521359  0.58961849  0.16144293     0.10700
H509        H  0.17488615  0.70268937  0.22023931     0.10700
H510        H  0.17398333  0.73474156  0.13561673     0.11200
H511        H  0.20770035  0.54204277  0.30742994     0.11200
H512        H  0.20777104  0.49509022  0.38132422     0.11200
H513        H  0.09244884  0.55469601  0.43411659     0.11400
H514        H  0.09263783  0.60176509  0.36033460     0.10200
C515        C  0.15281171  0.50648686  0.59820527    -0.03600
C516        C  0.12149145  0.50012305  0.63502411    -0.09400
C517        C  0.12449833  0.52118613  0.68108983    -0.17100
C518        C  0.15866765  0.54876327  0.69032974     0.25100
C519        C  0.18976654  0.55539016  0.65364824    -0.18700
C520        C  0.18682768  0.53437185  0.60769637    -0.07600
C521        C  0.16134100  0.57121848  0.73693356    -0.14100
C522        C  0.16280706  0.59127054  0.77527128    -0.13800
C523        C  0.16245495  0.61613708  0.82025150     0.25000
C524        C  0.15526185  0.65988660  0.81757923    -0.19200
C525        C  0.15215117  0.68378971  0.86152412    -0.07700
C526        C  0.15602355  0.66431495  0.90893347    -0.03800
C527        C  0.16437561  0.62019927  0.91086661    -0.09100
C528        C  0.16746816  0.59639515  0.86674701    -0.16700
H529        H  0.09482618  0.47903786  0.62798690     0.11400
H530        H  0.10016754  0.51618608  0.70931171     0.10700
H531        H  0.21616665  0.57686206  0.66052291     0.10700
H532        H  0.21121838  0.53957671  0.57958654     0.11200
H533        H  0.15134714  0.67540757  0.78158261     0.11200
H534        H  0.14594970  0.71761052  0.85863836     0.11200
H535        H  0.16800432  0.60322319  0.94560856     0.11400
H536        H  0.17308312  0.56242171  0.86895126     0.10200
loop_ 
_geom_bond_atom_site_label_1 
_geom_bond_atom_site_label_2 
_geom_bond_distance 
_geom_bond_site_symmetry_2 
_ccdc_geom_bond_type 
O1            V9   1.880   1_455  S
O1           C11   1.258       .  A
O2            V9   1.892       .  S
O2           C12   1.264       .  A
O3            V9   1.910   1_455  S
O3           C13   1.265   1_554  A
O4            V9   1.899       .  S
O4           C14   1.266       .  A
O5           V10   1.884       .  S
O5           C14   1.259   1_556  A
O6           V10   1.894   1_455  S
O6           C13   1.265       .  A
O7           V10   1.908       .  S
O7           C12   1.264   1_556  A
O8           V10   1.898   1_455  S
O8           C11   1.265   1_556  A
V9           V10   2.086   1_554  T
C11          C53   1.449       .  S
C12         C103   1.475       .  S
C13          C59   1.478       .  S
C14          C28   1.453   1_554  S
O15          V23   1.888   1_545  S
O15          C25   1.260   1_556  A
O16          V23   1.899       .  S
O16          C26   1.267       .  A
O17          V23   1.910   1_545  S
O17          C27   1.264       .  A
O18          V23   1.898       .  S
O18          C28   1.265       .  A
O19          V24   1.885       .  S
O19          C28   1.259   1_554  A
O20          V24   1.895   1_545  S
O20          C27   1.266   1_554  A
O21          V24   1.912       .  S
O21          C26   1.265   1_554  A
O22          V24   1.901   1_545  S
O22          C25   1.266       .  A
V23          V24   2.086   1_556  T
C25          C42   1.457       .  S
C26          C91   1.483       .  S
C27         C155   1.479   1_556  S
O29          V37   1.884   1_455  S
O29          C39   1.259   1_556  A
O30          V37   1.895       .  S
O30          C40   1.266       .  A
O31          V37   1.912   1_455  S
O31          C41   1.264   1_556  A
O32          V37   1.901       .  S
O32          C42   1.266   1_556  A
O33          V38   1.888       .  S
O33          C42   1.260       .  A
O34          V38   1.896   1_455  S
O34          C41   1.267       .  A
O35          V38   1.913       .  S
O35          C40   1.265   1_554  A
O36          V38   1.901   1_455  S
O36          C39   1.266       .  A
V37          V38   2.086   1_556  T
C39          C56   1.454       .  S
C40         C167   1.482       .  S
C41         C127   1.482       .  S
O43          V51   1.883       .  S
O43          C53   1.258   1_556  A
O44          V51   1.895   1_545  S
O44          C54   1.265   1_556  A
O45          V51   1.909       .  S
O45          C55   1.264   1_556  A
O46          V51   1.899   1_545  S
O46          C56   1.266   1_556  A
O47          V52   1.886   1_545  S
O47          C56   1.259       .  A
O48          V52   1.895       .  S
O48          C55   1.265       .  A
O49          V52   1.908   1_545  S
O49          C54   1.264       .  A
O50          V52   1.895       .  S
O50          C53   1.265       .  A
V51          V52   2.087   1_556  T
C54         C115   1.477   1_554  S
C55          C71   1.478       .  S
C57          C58   1.531       .  S
C57          C63   1.542   1_556  S
C57          C61   1.530       .  S
C57         C526   1.520       .  S
C58          H65   1.087       .  S
C58          C59   1.362       .  D
C59          C60   1.551   1_556  S
C60          C64   1.549       .  S
C60          C62   1.560   1_554  S
C60          H66   1.110       .  S
C61          H67   1.087       .  S
C61          C62   1.358       .  D
C62          C74   1.488   1_556  S
C63          H68   1.079       .  S
C63          C64   1.368       .  D
C64         C493   1.499       .  S
C69          C70   1.530       .  S
C69          C75   1.543   1_554  S
C69          C73   1.533       .  S
C69         C471   1.522       .  S
C70          H77   1.087       .  S
C70          C71   1.361       .  D
C71          C72   1.552   1_554  S
C72          C76   1.549       .  S
C72          C74   1.560   1_556  S
C72          H78   1.110       .  S
C73          H79   1.087       .  S
C73          C74   1.360       .  D
C75          H80   1.080       .  S
C75          C76   1.367       .  D
C76         C449   1.500       .  S
C81         C482   1.474       .  S
C81          C82   1.417       .  A
C81          C86   1.408       .  A
C82         C405   1.500       .  S
C82          C83   1.404       .  A
C83          C84   1.411       .  A
C83          H88   1.085       .  S
C84         C427   1.476       .  S
C84          C85   1.417       .  A
C85         C460   1.497       .  S
C85          C86   1.401       .  A
C86          H87   1.085       .  S
C89          C90   1.531       .  S
C89          C95   1.537   1_556  S
C89          C93   1.543       .  S
C89         C438   1.525       .  S
C90          H97   1.087       .  S
C90          C91   1.361       .  D
C91          C92   1.552   1_556  S
C92          C96   1.549       .  S
C92          C94   1.555   1_554  S
C92          H98   1.110       .  S
C93          H99   1.081       .  S
C93          C94   1.362       .  D
C94         C106   1.489   1_556  S
C95         H100   1.086       .  S
C95          C96   1.368       .  D
C96         C416   1.498       .  S
C101        C102   1.529       .  S
C101        C107   1.543   1_554  S
C101        C105   1.535       .  S
C101        C383   1.523       .  S
C102        H109   1.087       .  S
C102        C103   1.361       .  D
C103        C104   1.548   1_554  S
C104        C108   1.544       .  S
C104        C106   1.556   1_556  S
C104        H110   1.110       .  S
C105        H111   1.087       .  S
C105        C106   1.362       .  D
C107        H112   1.081       .  S
C107        C108   1.367       .  D
C108        C361   1.494       .  S
C113        C114   1.529       .  S
C113        C119   1.545   1_556  S
C113        C117   1.539       .  S
C113        C339   1.526       .  S
C114        H121   1.087       .  S
C114        C115   1.361       .  D
C115        C116   1.549   1_556  S
C116        C120   1.545       .  S
C116        C118   1.555   1_554  S
C116        H122   1.111       .  S
C117        H123   1.087       .  S
C117        C118   1.363       .  D
C118        C130   1.490   1_556  S
C119        H124   1.080       .  S
C119        C120   1.367       .  D
C120        C328   1.496       .  S
C125        C126   1.529       .  S
C125        C131   1.536   1_554  S
C125        C129   1.540       .  S
C125        C295   1.524       .  S
C126        H133   1.087       .  S
C126        C127   1.361       .  D
C127        C128   1.555   1_554  S
C128        C132   1.552       .  S
C128        C130   1.556   1_556  S
C128        H134   1.110       .  S
C129        H135   1.081       .  S
C129        C130   1.360       .  D
C131        H136   1.086       .  S
C131        C132   1.370       .  D
C132        C273   1.504       .  S
C137        C515   1.472       .  S
C137        C138   1.418       .  A
C137        C142   1.407       .  A
C138        C284   1.502       .  S
C138        C139   1.405       .  A
C139        C140   1.411       .  A
C139        H144   1.084       .  S
C140        C306   1.475       .  S
C140        C141   1.416       .  A
C141        C504   1.497       .  S
C141        C142   1.399       .  A
C142        H143   1.085       .  S
C145        C350   1.479       .  S
C145        C146   1.416       .  A
C145        C150   1.409       .  A
C146        C229   1.495       .  S
C146        C147   1.402       .  A
C147        C148   1.409       .  A
C147        H152   1.085       .  S
C148        C251   1.480       .  S
C148        C149   1.419       .  A
C149        C317   1.498       .  S
C149        C150   1.405       .  A
C150        H151   1.085       .  S
C153        C154   1.530       .  S
C153        C159   1.545   1_554  S
C153        C157   1.538       .  S
C153        C262   1.527       .  S
C154        H161   1.087       .  S
C154        C155   1.360       .  D
C155        C156   1.551   1_554  S
C156        C160   1.544       .  S
C156        C158   1.556   1_556  S
C156        H162   1.111       .  S
C157        H163   1.087       .  S
C157        C158   1.363       .  D
C158        C170   1.491   1_554  S
C159        H164   1.080       .  S
C159        C160   1.368       .  D
C160        C240   1.495       .  S
C165        C166   1.530       .  S
C165        C171   1.535   1_556  S
C165        C169   1.543       .  S
C165        C207   1.527       .  S
C166        H173   1.087       .  S
C166        C167   1.362       .  D
C167        C168   1.553   1_556  S
C168        C172   1.551       .  S
C168        C170   1.554   1_554  S
C168        H174   1.110       .  S
C169        H175   1.081       .  S
C169        C170   1.363       .  D
C171        H176   1.086       .  S
C171        C172   1.369       .  D
C172        C196   1.501       .  S
C177        C394   1.475       .  S
C177        C178   1.416       .  A
C177        C182   1.405       .  A
C178        C185   1.498       .  S
C178        C179   1.406       .  A
C179        C180   1.410       .  A
C179        H184   1.084       .  S
C180        C218   1.479       .  S
C180        C181   1.417       .  A
C181        C372   1.494       .  S
C181        C182   1.401       .  A
C182        H183   1.085       .  S
C185        C186   1.407       .  A
C185        C190   1.408       .  A
C186        C187   1.405       .  A
C186        H199   1.083       .  S
C187        C188   1.404       .  A
C187        H200   1.083       .  S
C188        C189   1.402       .  A
C188        C191   1.454       .  S
C189        C190   1.403       .  A
C189        H201   1.083       .  S
C190        H202   1.083       .  S
C191        C192   1.215       .  T
C192        C193   1.454       .  S
C193        C194   1.404       .  A
C193        C198   1.400       .  A
C194        C195   1.407       .  A
C194        H203   1.084       .  S
C195        C196   1.408       .  A
C195        H204   1.082       .  S
C196        C197   1.411       .  A
C197        C198   1.401       .  A
C197        H205   1.082       .  S
C198        H206   1.083       .  S
C207        C208   1.412       .  A
C207        C212   1.411       .  A
C208        C209   1.397       .  A
C208        H221   1.076       .  S
C209        C210   1.397       .  A
C209        H222   1.084       .  S
C210        C211   1.397       .  A
C210        C213   1.437       .  S
C211        C212   1.397       .  A
C211        H223   1.083       .  S
C212        H224   1.083       .  S
C213        C214   1.204       .  T
C214        C215   1.437       .  S
C215        C216   1.400       .  A
C215        C220   1.400       .  A
C216        C217   1.397       .  A
C216        H225   1.084       .  S
C217        C218   1.403       .  A
C217        H226   1.083       .  S
C218        C219   1.405       .  A
C219        C220   1.397       .  A
C219        H227   1.083       .  S
C220        H228   1.083       .  S
C229        C230   1.407       .  A
C229        C234   1.407       .  A
C230        C231   1.404       .  A
C230        H243   1.083       .  S
C231        C232   1.402       .  A
C231        H244   1.083       .  S
C232        C233   1.403       .  A
C232        C235   1.453       .  S
C233        C234   1.404       .  A
C233        H245   1.083       .  S
C234        H246   1.083       .  S
C235        C236   1.214       .  T
C236        C237   1.453       .  S
C237        C238   1.400       .  A
C237        C242   1.405       .  A
C238        C239   1.400       .  A
C238        H247   1.083       .  S
C239        C240   1.408       .  A
C239        H248   1.083       .  S
C240        C241   1.407       .  A
C241        C242   1.407       .  A
C241        H249   1.082       .  S
C242        H250   1.083       .  S
C251        C252   1.405       .  A
C251        C256   1.405       .  A
C252        C253   1.396       .  A
C252        H265   1.083       .  S
C253        C254   1.399       .  A
C253        H266   1.084       .  S
C254        C255   1.401       .  A
C254        C257   1.437       .  S
C255        C256   1.398       .  A
C255        H267   1.083       .  S
C256        H268   1.083       .  S
C257        C258   1.204       .  T
C258        C259   1.437       .  S
C259        C260   1.397       .  A
C259        C264   1.397       .  A
C260        C261   1.398       .  A
C260        H269   1.084       .  S
C261        C262   1.413       .  A
C261        H270   1.076       .  S
C262        C263   1.410       .  A
C263        C264   1.396       .  A
C263        H271   1.083       .  S
C264        H272   1.084       .  S
C273        C274   1.411       .  A
C273        C278   1.409       .  A
C274        C275   1.401       .  A
C274        H287   1.082       .  S
C275        C276   1.400       .  A
C275        H288   1.083       .  S
C276        C277   1.406       .  A
C276        C279   1.458       .  S
C277        C278   1.410       .  A
C277        H289   1.083       .  S
C278        H290   1.082       .  S
C279        C280   1.217       .  T
C280        C281   1.458       .  S
C281        C282   1.404       .  A
C281        C286   1.404       .  A
C282        C283   1.406       .  A
C282        H291   1.083       .  S
C283        C284   1.408       .  A
C283        H292   1.083       .  S
C284        C285   1.409       .  A
C285        C286   1.405       .  A
C285        H293   1.083       .  S
C286        H294   1.083       .  S
C295        C296   1.411       .  A
C295        C300   1.412       .  A
C296        C297   1.395       .  A
C296        H309   1.083       .  S
C297        C298   1.396       .  A
C297        H310   1.083       .  S
C298        C299   1.396       .  A
C298        C301   1.433       .  S
C299        C300   1.395       .  A
C299        H311   1.084       .  S
C300        H312   1.076       .  S
C301        C302   1.202       .  T
C302        C303   1.433       .  S
C303        C304   1.399       .  A
C303        C308   1.399       .  A
C304        C305   1.395       .  A
C304        H313   1.083       .  S
C305        C306   1.403       .  A
C305        H314   1.083       .  S
C306        C307   1.404       .  A
C307        C308   1.396       .  A
C307        H315   1.083       .  S
C308        H316   1.084       .  S
C317        C318   1.407       .  A
C317        C322   1.408       .  A
C318        C319   1.403       .  A
C318        H331   1.083       .  S
C319        C320   1.403       .  A
C319        H332   1.084       .  S
C320        C321   1.403       .  A
C320        C323   1.455       .  S
C321        C322   1.405       .  A
C321        H333   1.083       .  S
C322        H334   1.083       .  S
C323        C324   1.215       .  T
C324        C325   1.454       .  S
C325        C326   1.405       .  A
C325        C330   1.400       .  A
C326        C327   1.408       .  A
C326        H335   1.083       .  S
C327        C328   1.407       .  A
C327        H336   1.082       .  S
C328        C329   1.408       .  A
C329        C330   1.400       .  A
C329        H337   1.083       .  S
C330        H338   1.083       .  S
C339        C340   1.413       .  A
C339        C344   1.410       .  A
C340        C341   1.398       .  A
C340        H353   1.076       .  S
C341        C342   1.397       .  A
C341        H354   1.083       .  S
C342        C343   1.397       .  A
C342        C345   1.436       .  S
C343        C344   1.396       .  A
C343        H355   1.084       .  S
C344        H356   1.083       .  S
C345        C346   1.204       .  T
C346        C347   1.436       .  S
C347        C348   1.400       .  A
C347        C352   1.400       .  A
C348        C349   1.397       .  A
C348        H357   1.084       .  S
C349        C350   1.404       .  A
C349        H358   1.083       .  S
C350        C351   1.404       .  A
C351        C352   1.397       .  A
C351        H359   1.083       .  S
C352        H360   1.083       .  S
C361        C362   1.407       .  A
C361        C366   1.409       .  A
C362        C363   1.408       .  A
C362        H375   1.083       .  S
C363        C364   1.405       .  A
C363        H376   1.083       .  S
C364        C365   1.398       .  A
C364        C367   1.450       .  S
C365        C366   1.397       .  A
C365        H377   1.084       .  S
C366        H378   1.083       .  S
C367        C368   1.212       .  T
C368        C369   1.450       .  S
C369        C370   1.403       .  A
C369        C374   1.402       .  A
C370        C371   1.402       .  A
C370        H379   1.083       .  S
C371        C372   1.407       .  A
C371        H380   1.083       .  S
C372        C373   1.407       .  A
C373        C374   1.402       .  A
C373        H381   1.083       .  S
C374        H382   1.083       .  S
C383        C384   1.413       .  A
C383        C388   1.410       .  A
C384        C385   1.396       .  A
C384        H397   1.077       .  S
C385        C386   1.396       .  A
C385        H398   1.083       .  S
C386        C387   1.396       .  A
C386        C389   1.433       .  S
C387        C388   1.395       .  A
C387        H399   1.084       .  S
C388        H400   1.083       .  S
C389        C390   1.202       .  T
C390        C391   1.433       .  S
C391        C392   1.399       .  A
C391        C396   1.400       .  A
C392        C393   1.394       .  A
C392        H401   1.084       .  S
C393        C394   1.403       .  A
C393        H402   1.083       .  S
C394        C395   1.404       .  A
C395        C396   1.397       .  A
C395        H403   1.083       .  S
C396        H404   1.083       .  S
C405        C406   1.407       .  A
C405        C410   1.408       .  A
C406        C407   1.406       .  A
C406        H419   1.083       .  S
C407        C408   1.404       .  A
C407        H420   1.083       .  S
C408        C409   1.403       .  A
C408        C411   1.457       .  S
C409        C410   1.404       .  A
C409        H421   1.083       .  S
C410        H422   1.083       .  S
C411        C412   1.216       .  T
C412        C413   1.456       .  S
C413        C414   1.401       .  A
C413        C418   1.405       .  A
C414        C415   1.401       .  A
C414        H423   1.083       .  S
C415        C416   1.409       .  A
C415        H424   1.083       .  S
C416        C417   1.407       .  A
C417        C418   1.408       .  A
C417        H425   1.082       .  S
C418        H426   1.084       .  S
C427        C428   1.403       .  A
C427        C432   1.405       .  A
C428        C429   1.395       .  A
C428        H441   1.083       .  S
C429        C430   1.399       .  A
C429        H442   1.084       .  S
C430        C431   1.400       .  A
C430        C433   1.435       .  S
C431        C432   1.398       .  A
C431        H443   1.083       .  S
C432        H444   1.083       .  S
C433        C434   1.203       .  T
C434        C435   1.435       .  S
C435        C436   1.397       .  A
C435        C440   1.397       .  A
C436        C437   1.397       .  A
C436        H445   1.083       .  S
C437        C438   1.411       .  A
C437        H446   1.083       .  S
C438        C439   1.411       .  A
C439        C440   1.396       .  A
C439        H447   1.076       .  S
C440        H448   1.084       .  S
C449        C450   1.410       .  A
C449        C454   1.408       .  A
C450        C451   1.398       .  A
C450        H463   1.083       .  S
C451        C452   1.398       .  A
C451        H464   1.084       .  S
C452        C453   1.407       .  A
C452        C455   1.456       .  S
C453        C454   1.411       .  A
C453        H465   1.083       .  S
C454        H466   1.082       .  S
C455        C456   1.216       .  T
C456        C457   1.456       .  S
C457        C458   1.403       .  A
C457        C462   1.404       .  A
C458        C459   1.405       .  A
C458        H467   1.083       .  S
C459        C460   1.407       .  A
C459        H468   1.083       .  S
C460        C461   1.407       .  A
C461        C462   1.405       .  A
C461        H469   1.083       .  S
C462        H470   1.083       .  S
C471        C472   1.410       .  A
C471        C476   1.412       .  A
C472        C473   1.394       .  A
C472        H485   1.083       .  S
C473        C474   1.396       .  A
C473        H486   1.084       .  S
C474        C475   1.395       .  A
C474        C477   1.431       .  S
C475        C476   1.395       .  A
C475        H487   1.084       .  S
C476        H488   1.076       .  S
C477        C478   1.201       .  T
C478        C479   1.431       .  S
C479        C480   1.398       .  A
C479        C484   1.399       .  A
C480        C481   1.395       .  A
C480        H489   1.084       .  S
C481        C482   1.404       .  A
C481        H490   1.083       .  S
C482        C483   1.404       .  A
C483        C484   1.395       .  A
C483        H491   1.083       .  S
C484        H492   1.083       .  S
C493        C494   1.411       .  A
C493        C498   1.407       .  A
C494        C495   1.398       .  A
C494        H507   1.082       .  S
C495        C496   1.398       .  A
C495        H508   1.084       .  S
C496        C497   1.407       .  A
C496        C499   1.454       .  S
C497        C498   1.410       .  A
C497        H509   1.084       .  S
C498        H510   1.083       .  S
C499        C500   1.215       .  T
C500        C501   1.455       .  S
C501        C502   1.404       .  A
C501        C506   1.403       .  A
C502        C503   1.404       .  A
C502        H511   1.083       .  S
C503        C504   1.408       .  A
C503        H512   1.083       .  S
C504        C505   1.407       .  A
C505        C506   1.404       .  A
C505        H513   1.083       .  S
C506        H514   1.083       .  S
C515        C516   1.403       .  A
C515        C520   1.403       .  A
C516        C517   1.396       .  A
C516        H529   1.083       .  S
C517        C518   1.400       .  A
C517        H530   1.083       .  S
C518        C519   1.397       .  A
C518        C521   1.429       .  S
C519        C520   1.392       .  A
C519        H531   1.084       .  S
C520        H532   1.083       .  S
C521        C522   1.199       .  T
C522        C523   1.429       .  S
C523        C524   1.395       .  A
C523        C528   1.395       .  A
C524        C525   1.393       .  A
C524        H533   1.084       .  S
C525        C526   1.410       .  A
C525        H534   1.083       .  S
C526        C527   1.412       .  A
C527        C528   1.395       .  A
C527        H535   1.075       .  S
C528        H536   1.084       .  S
