geometry optimzed in LAMMPS
_audit_creation_date              2020-12-01 
_audit_creation_method            'lammps2cif' 
_symmetry_space_group_name_H-M    'P1' 
_symmetry_Int_Tables_number       1 
_symmetry_cell_setting            triclinic 
loop_ 
_symmetry_equiv_pos_as_xyz 
  x,y,z 
_cell_length_a                    45.89258697 
_cell_length_b                    45.923656052690625 
_cell_length_c                    56.96234942839261 
_cell_angle_alpha                 90.05731055604772 
_cell_angle_beta                  89.99131101482777 
_cell_angle_gamma                 89.81948101180842 
loop_ 
_atom_site_label 
_atom_site_type_symbol 
_atom_site_fract_x 
_atom_site_fract_y 
_atom_site_fract_z 
_atom_site_charge 
O1          O  0.22985892  0.72227926  0.21204333    -0.72800
O2          O  0.24111113  0.79621407  0.24785108    -0.73800
O3          O  0.27342805  0.76601289  0.21326194    -0.62400
O4          O  0.19765237  0.75285119  0.24658161    -0.70800
O5          O  0.22090641  0.72860626  0.27447186    -0.70400
O6          O  0.29696969  0.74201487  0.24113693    -0.61600
O7          O  0.26443794  0.77207046  0.27578891    -0.74100
O8          O  0.25337769  0.69819821  0.23991515    -0.72900
Cu9        Cu  0.23474181  0.76015517  0.22895068     1.04600
Cu10       Cu  0.25974709  0.73433799  0.25877729     1.04300
C11         C  0.23968354  0.69838716  0.22040594     0.93400
C12         C  0.25446444  0.79592115  0.26752692     0.92500
C13         C  0.29727898  0.75643971  0.22195287     0.84700
C14         C  0.19721240  0.73874811  0.26590499     0.91000
N15         N  0.55751713  0.79111376  0.14757864    -0.27100
N16         N  0.54201013  0.78866223  0.16701525    -0.35000
C17         C  0.56007603  0.78484517  0.18528968     0.01200
C18         C  0.58837895  0.78513105  0.17700743     0.07200
C19         C  0.58595534  0.78913193  0.15299151    -0.05900
H20         H  0.55305284  0.78178072  0.20324666     0.07900
H21         H  0.60342765  0.78948961  0.14024789     0.09100
Cu22       Cu  0.49709315  0.78892475  0.16795005     0.44200
Cu23       Cu  0.53917224  0.79511897  0.11456793     0.42000
Cu24       Cu  0.45989575  0.79092928  0.11250350     0.43900
N25         N  0.45241058  0.78607173  0.16482455    -0.34500
N26         N  0.43862990  0.78629821  0.14448630    -0.28800
C27         C  0.40997084  0.78259614  0.14837461    -0.04900
C28         C  0.40543081  0.78005288  0.17241195     0.07300
C29         C  0.43298788  0.78232598  0.18219222     0.01100
H30         H  0.39391535  0.78096972  0.13456270     0.08800
H31         H  0.43867281  0.78110727  0.20059147     0.07900
N32         N  0.48625737  0.79623781  0.08317198    -0.36000
N33         N  0.51500852  0.79761552  0.08396998    -0.28200
C34         C  0.52542461  0.79975258  0.06199774    -0.03400
C35         C  0.50213691  0.79989333  0.04653676     0.05200
C36         C  0.47763375  0.79759310  0.06063748     0.03300
H37         H  0.54834392  0.80065595  0.05761865     0.08400
H38         H  0.45523090  0.79570253  0.05499191     0.07200
N39         N  0.56867724  0.78858825  0.84650089    -0.27100
N40         N  0.55492305  0.78512839  0.82633101    -0.35000
C41         C  0.57461833  0.78325490  0.80897788     0.01200
C42         C  0.60217004  0.78569869  0.81867569     0.07200
C43         C  0.59752983  0.78910348  0.84253235    -0.05900
H44         H  0.56924753  0.77925356  0.79076844     0.07900
H45         H  0.61385573  0.79001019  0.85620228     0.09100
Cu46       Cu  0.51039536  0.78001942  0.82342649     0.44200
Cu47       Cu  0.54783989  0.78949009  0.87861189     0.42000
Cu48       Cu  0.46975172  0.77942405  0.87786596     0.43900
N49         N  0.46597623  0.77345368  0.82528733    -0.34500
N50         N  0.45120001  0.77277434  0.84513823    -0.28800
C51         C  0.42295155  0.76828507  0.84027812    -0.04900
C52         C  0.41949917  0.76618253  0.81606109     0.07300
C53         C  0.44755043  0.76962524  0.80724885     0.01100
H54         H  0.40625913  0.76697683  0.85360699     0.08800
H55         H  0.45450928  0.77015533  0.78917558     0.07900
N56         N  0.49357342  0.78685092  0.90818633    -0.36000
N57         N  0.52218089  0.78998499  0.90839024    -0.28200
C58         C  0.53119435  0.79363239  0.93062270    -0.03400
C59         C  0.50708287  0.79279157  0.94520003     0.05200
C60         C  0.48356666  0.78866865  0.93033173     0.03300
H61         H  0.55364212  0.79704666  0.93565441     0.08400
H62         H  0.46091299  0.78652404  0.93527661     0.07200
N63         N  0.05573552  0.71948733  0.34419822    -0.27100
N64         N  0.04061661  0.72127364  0.32452212    -0.35000
C65         C  0.05913344  0.72475751  0.30643911     0.01200
C66         C  0.08734512  0.72523722  0.31518314     0.07200
C67         C  0.08423695  0.72171784  0.33920342    -0.05900
H68         H  0.05242457  0.72640612  0.28829437     0.07900
H69         H  0.10139879  0.72124731  0.35221447     0.09100
Cu70       Cu  0.99551241  0.71958928  0.32345877     0.44200
Cu71       Cu  0.03710227  0.71486183  0.37703288     0.42000
Cu72       Cu  0.95857159  0.71313000  0.37969304     0.43900
N73         N  0.95065594  0.72061586  0.32758628    -0.34500
N74         N  0.93724721  0.71827708  0.34802031    -0.28800
C75         C  0.90842905  0.72150098  0.34474452    -0.04900
C76         C  0.90336269  0.72633696  0.32109569     0.07300
C77         C  0.93071266  0.72535115  0.31075179     0.01100
H78         H  0.89248297  0.72133987  0.35873020     0.08800
H79         H  0.93598164  0.72794888  0.29238108     0.07900
N80         N  0.98504978  0.71178655  0.40901137    -0.36000
N81         N  0.01378496  0.71240261  0.40802284    -0.28200
C82         C  0.02454041  0.71182876  0.42994714    -0.03400
C83         C  0.00141817  0.71101283  0.44560299     0.05200
C84         C  0.97671074  0.71087406  0.43160103     0.03300
H85         H  0.04754843  0.71158724  0.43398737     0.08400
H86         H  0.95424957  0.71057815  0.43735215     0.07200
N87         N  0.06764560  0.70836838  0.64558600    -0.27100
N88         N  0.05406419  0.70714760  0.66599064    -0.35000
C89         C  0.07381681  0.70928847  0.68330433     0.01200
C90         C  0.10132910  0.71217580  0.67340571     0.07200
C91         C  0.09635541  0.71157005  0.64935237    -0.05900
H92         H  0.06829952  0.70927131  0.70175589     0.07900
H93         H  0.11202974  0.71438196  0.63540389     0.09100
Cu94       Cu  0.00912777  0.70567109  0.66946359     0.44200
Cu95       Cu  0.04661157  0.70692027  0.61347672     0.42000
Cu96       Cu  0.96779869  0.70684875  0.61555463     0.43900
N97         N  0.96411526  0.70922511  0.66822290    -0.34500
N98         N  0.94898140  0.70948795  0.64849432    -0.28800
C99         C  0.92062377  0.71332238  0.65358272    -0.04900
C100        C  0.91776909  0.71598209  0.67769316     0.07300
C101        C  0.94581951  0.71308739  0.68639876     0.01100
H102        H  0.90348735  0.71503821  0.64060996     0.08800
H103        H  0.95258716  0.71382927  0.70456717     0.07900
N104        N  0.99163475  0.70580596  0.58474539    -0.36000
N105        N  0.02039745  0.70576536  0.58393809    -0.28200
C106        C  0.02896063  0.70567481  0.56137746    -0.03400
C107        C  0.00437658  0.70560538  0.54723390     0.05200
C108        C  0.98110682  0.70581332  0.56274822     0.03300
H109        H  0.05147128  0.70577278  0.55574433     0.08400
H110        H  0.95816228  0.70684168  0.55853680     0.07200
O111        O  0.20986212  0.74647868  0.74298715    -0.72800
O112        O  0.28562795  0.76151174  0.77587446    -0.73800
O113        O  0.25137756  0.79199025  0.74217426    -0.62400
O114        O  0.24403828  0.71656498  0.77679647    -0.70800
O115        O  0.26791084  0.69362393  0.74847736    -0.70400
O116        O  0.27503324  0.76959062  0.71347182    -0.61600
O117        O  0.30928089  0.73909617  0.74711393    -0.74100
O118        O  0.23364394  0.72382437  0.71445937    -0.72900
Cu119      Cu  0.24691272  0.75493964  0.76041383     1.04600
Cu120      Cu  0.27227926  0.73076138  0.72985554     1.04300
C121        C  0.20972171  0.73274686  0.72346365     0.93400
C122        C  0.30942726  0.75222934  0.76688564     0.92500
C123        C  0.26419622  0.79287249  0.72228749     0.84700
C124        C  0.25499328  0.69319204  0.76838861     0.91000
N125        N  0.43364709  0.21656537  0.15183715    -0.27100
N126        N  0.44725323  0.22037891  0.17203408    -0.35000
C127        C  0.42749713  0.22612815  0.18882510     0.01200
C128        C  0.40001974  0.22609124  0.17871377     0.07200
C129        C  0.40483353  0.21977243  0.15523388    -0.05900
H130        H  0.43288785  0.22948249  0.20710159     0.07900
H131        H  0.38864309  0.21792309  0.14151926     0.09100
Cu132      Cu  0.49199327  0.21782278  0.17595230     0.44200
Cu133      Cu  0.45486579  0.20756866  0.12057451     0.42000
Cu134      Cu  0.53354673  0.20221928  0.12347462     0.43900
N135        N  0.53699328  0.21559836  0.17515087    -0.34500
N136        N  0.55220622  0.20971826  0.15602576    -0.28800
C137        C  0.58075313  0.21107306  0.16116075    -0.04900
C138        C  0.58368583  0.21813636  0.18470736     0.07300
C139        C  0.55542286  0.22090277  0.19295964     0.01100
H140        H  0.59797726  0.20829888  0.14839013     0.08800
H141        H  0.54866825  0.22670260  0.21055312     0.07900
N142        N  0.50987967  0.19859842  0.09264326    -0.36000
N143        N  0.48118713  0.20059024  0.09156978    -0.28200
C144        C  0.47280067  0.19885027  0.06900469    -0.03400
C145        C  0.49741602  0.19584725  0.05510199     0.05200
C146        C  0.52052265  0.19555351  0.07079574     0.03300
H147        H  0.45046039  0.20070685  0.06312364     0.08400
H148        H  0.54345802  0.19347583  0.06678592     0.07200
N149        N  0.44395372  0.20999701  0.85199322    -0.27100
N150        N  0.45961867  0.21348936  0.83275405    -0.35000
C151        C  0.44164831  0.21762295  0.81440879     0.01200
C152        C  0.41307675  0.21697815  0.82239693     0.07200
C153        C  0.41553184  0.21189943  0.84637278    -0.05900
H154        H  0.44910593  0.22063576  0.79658734     0.07900
H155        H  0.39797596  0.21031900  0.85897210     0.09100
Cu156      Cu  0.50477132  0.21368880  0.83232321     0.44200
Cu157      Cu  0.46223511  0.20359478  0.88504028     0.42000
Cu158      Cu  0.54161258  0.20283307  0.88751706     0.43900
N159        N  0.54965228  0.21490969  0.83610935    -0.34500
N160        N  0.56321083  0.21069177  0.85627999    -0.28800
C161        C  0.59205340  0.21378058  0.85299676    -0.04900
C162        C  0.59692590  0.22029736  0.82957035     0.07300
C163        C  0.56947367  0.22090138  0.81945497     0.01100
H164        H  0.60805805  0.21247072  0.86688430     0.08800
H165        H  0.56420786  0.22559366  0.80133597     0.07900
N166        N  0.51493874  0.19802765  0.91654583    -0.36000
N167        N  0.48615717  0.19846329  0.91580304    -0.28200
C168        C  0.47576832  0.19633892  0.93782663    -0.03400
C169        C  0.49914841  0.19440931  0.95322703     0.05200
C170        C  0.52360153  0.19558764  0.93897863     0.03300
H171        H  0.45287729  0.19738622  0.94222630     0.08400
H172        H  0.54615959  0.19516166  0.94446809     0.07200
N173        N  0.21285317  0.43868841  0.14565370    -0.27100
N174        N  0.21441321  0.45320762  0.16564209    -0.35000
C175        C  0.21735769  0.43419451  0.18338583     0.01200
C176        C  0.21754278  0.40624892  0.17418635     0.07200
C177        C  0.21480982  0.41003490  0.15013788    -0.05900
H178        H  0.21892179  0.44035131  0.20167565     0.07900
H179        H  0.21467897  0.39339692  0.13671296     0.09100
Cu180      Cu  0.21257011  0.49808359  0.16809102     0.44200
Cu181      Cu  0.20737220  0.45817099  0.11319737     0.42000
Cu182      Cu  0.19799129  0.53610934  0.11394026     0.43900
N183        N  0.21132386  0.54292810  0.16526010    -0.34500
N184        N  0.20576506  0.55679765  0.14545729    -0.28800
C185        C  0.20802906  0.58559259  0.14909709    -0.04900
C186        C  0.21533110  0.59013239  0.17239311     0.07300
C187        C  0.21727743  0.56253230  0.18207816     0.01100
H188        H  0.20577840  0.60180317  0.13545979     0.08800
H189        H  0.22300534  0.55700561  0.19995141     0.07900
N190        N  0.19604744  0.51129679  0.08378651    -0.36000
N191        N  0.19985271  0.48278503  0.08337791    -0.28200
C192        C  0.19924646  0.47358412  0.06097927    -0.03400
C193        C  0.19514996  0.49753849  0.04656956     0.05200
C194        C  0.19298678  0.52105319  0.06171431     0.03300
H195        H  0.20272190  0.45125744  0.05555801     0.08400
H196        H  0.18988573  0.54370103  0.05716128     0.07200
N197        N  0.23454636  0.55277107  0.84794222    -0.27100
N198        N  0.24259432  0.53796221  0.82912963    -0.35000
C199        C  0.24982691  0.55672258  0.81200874     0.01200
C200        C  0.24629759  0.58485932  0.82042941     0.07200
C201        C  0.23649967  0.58138727  0.84330798    -0.05900
H202        H  0.25606597  0.55017110  0.79447766     0.07900
H203        H  0.23094836  0.59838267  0.85569811     0.09100
Cu204      Cu  0.24205051  0.49299980  0.82721706     0.44200
Cu205      Cu  0.22067311  0.53339433  0.87885883     0.42000
Cu206      Cu  0.21840934  0.45488260  0.87959322     0.43900
N207        N  0.23779622  0.44828511  0.82941301    -0.34500
N208        N  0.22873542  0.43453798  0.84839086    -0.28800
C209        C  0.22776128  0.40585545  0.84398575    -0.04900
C210        C  0.23696437  0.40113652  0.82111343     0.07300
C211        C  0.24300104  0.42866352  0.81241928     0.01100
H212        H  0.22030734  0.38993079  0.85654730     0.08800
H213        H  0.25082705  0.43414769  0.79507349     0.07900
N214        N  0.21018036  0.48032208  0.90871081    -0.36000
N215        N  0.21053057  0.50906212  0.90838470    -0.28200
C216        C  0.20548168  0.51901501  0.93019069    -0.03400
C217        C  0.20184603  0.49538845  0.94507116     0.05200
C218        C  0.20508197  0.47118124  0.93072170     0.03300
H219        H  0.20519307  0.54183681  0.93487952     0.08400
H220        H  0.20513996  0.44854238  0.93588854     0.07200
N221        N  0.05113851  0.28444465  0.35158316    -0.27100
N222        N  0.03568167  0.28180194  0.33214321    -0.35000
C223        C  0.05371483  0.27718126  0.31393123     0.01200
C224        C  0.08205453  0.27677032  0.32225740     0.07200
C225        C  0.07954281  0.28165794  0.34621561    -0.05900
H226        H  0.04653602  0.27460005  0.29597898     0.07900
H227        H  0.09703565  0.28256301  0.35891947     0.09100
Cu228      Cu  0.99082654  0.28353739  0.33122523     0.44200
Cu229      Cu  0.03266773  0.29103667  0.38450937     0.42000
Cu230      Cu  0.95373609  0.29418803  0.38666483     0.43900
N231        N  0.94618039  0.28289731  0.33500022    -0.34500
N232        N  0.93249401  0.28665296  0.35517994    -0.28800
C233        C  0.90368193  0.28389037  0.35162189    -0.04900
C234        C  0.89905456  0.27786355  0.32807510     0.07300
C235        C  0.92655331  0.27764745  0.31807838     0.01100
H236        H  0.88739472  0.28553091  0.36529283     0.08800
H237        H  0.93211221  0.27417431  0.29984914     0.07900
N238        N  0.98017276  0.29951543  0.41581950    -0.36000
N239        N  0.00892228  0.29793042  0.41513484    -0.28200
C240        C  0.01937153  0.30099545  0.43705551    -0.03400
C241        C  0.99610863  0.30492666  0.45229990     0.05200
C242        C  0.97158677  0.30377458  0.43814010     0.03300
H243        H  0.04225678  0.30019347  0.44156389     0.08400
H244        H  0.94906543  0.30478514  0.44367787     0.07200
N245        N  0.94169383  0.28524137  0.65324785    -0.27100
N246        N  0.95695536  0.27816982  0.67210504    -0.35000
C247        C  0.93855325  0.27152045  0.68962983     0.01200
C248        C  0.91024991  0.27433758  0.68147015     0.07200
C249        C  0.91315703  0.28323719  0.65833522    -0.05900
H250        H  0.94548300  0.26563030  0.70713352     0.07900
H251        H  0.89582120  0.28763280  0.64595818     0.09100
Cu252      Cu  0.00208072  0.27732097  0.67383284     0.44200
Cu253      Cu  0.95988992  0.29665736  0.62115596     0.42000
Cu254      Cu  0.03868521  0.29546461  0.62058976     0.43900
N255        N  0.04711373  0.27731578  0.67079383    -0.34500
N256        N  0.06055715  0.28431611  0.65115774    -0.28800
C257        C  0.08948256  0.28217515  0.65441830    -0.04900
C258        C  0.09487350  0.27317052  0.67737764     0.07300
C259        C  0.06713701  0.27041770  0.68711282     0.01100
H260        H  0.10499241  0.28701774  0.64077433     0.08800
H261        H  0.06161514  0.26367504  0.70472276     0.07900
N262        N  0.01332939  0.30292013  0.59105781    -0.36000
N263        N  0.98453896  0.30357796  0.59108453    -0.28200
C264        C  0.97507537  0.30670045  0.56884154    -0.03400
C265        C  0.99909447  0.30767908  0.55406989     0.05200
C266        C  0.02293893  0.30549669  0.56888727     0.03300
H267        H  0.95238553  0.30663392  0.56368676     0.08400
H268        H  0.04569508  0.30511543  0.56398104     0.07200
N269        N  0.27201458  0.05490238  0.34446154    -0.27100
N270        N  0.27538421  0.04105361  0.32430923    -0.35000
C271        C  0.27374585  0.06041649  0.30665753     0.01200
C272        C  0.26885737  0.08785262  0.31616961     0.07200
C273        C  0.26806026  0.08337291  0.34021236    -0.05900
H274        H  0.27580137  0.05466618  0.28833407     0.07900
H275        H  0.26411801  0.09948819  0.35371211     0.09100
Cu276      Cu  0.27917462  0.99622990  0.32175816     0.44200
Cu277      Cu  0.27217701  0.03486901  0.37694288     0.42000
Cu278      Cu  0.27439174  0.95705997  0.37716054     0.43900
N279        N  0.27572474  0.95144403  0.32457632    -0.34500
N280        N  0.27401547  0.93735441  0.34475007    -0.28800
C281        C  0.27068354  0.90881552  0.34052567    -0.04900
C282        C  0.26986486  0.90476954  0.31652917     0.07300
C283        C  0.27324569  0.93220969  0.30691982     0.01100
H284        H  0.26816945  0.89237503  0.35396208     0.08800
H285        H  0.27373717  0.93789139  0.28850476     0.07900
N286        N  0.27528783  0.98169692  0.40729735    -0.36000
N287        N  0.27477522  0.01043660  0.40732477    -0.28200
C288        C  0.27697804  0.01997835  0.42956164    -0.03400
C289        C  0.27868719  0.99599124  0.44420905     0.05200
C290        C  0.27762846  0.97208363  0.42945010     0.03300
H291        H  0.27735710  0.04267549  0.43465056     0.08400
H292        H  0.27934715  0.94937380  0.43428766     0.07200
N293        N  0.28066700  0.93534364  0.64375825    -0.27100
N294        N  0.27715854  0.94931968  0.66384209    -0.35000
C295        C  0.27335766  0.92975301  0.68111917     0.01200
C296        C  0.27478069  0.90202809  0.67149631     0.07200
C297        C  0.27928749  0.90652553  0.64770195    -0.05900
H298        H  0.27022350  0.93533239  0.69940425     0.07900
H299        H  0.28095785  0.89019828  0.63408517     0.09100
Cu300      Cu  0.27799209  0.99432227  0.66660916     0.44200
Cu301      Cu  0.28687951  0.95610116  0.61186819     0.42000
Cu302      Cu  0.28702336  0.03464484  0.61207675     0.43900
N303        N  0.27884368  0.03934146  0.66432377    -0.34500
N304        N  0.28170766  0.05389338  0.64447529    -0.28800
C305        C  0.28043103  0.08256437  0.64897323    -0.04900
C306        C  0.27685002  0.08640083  0.67293402     0.07300
C307        C  0.27587204  0.05841743  0.68204016     0.01100
H308        H  0.28130661  0.09913854  0.63554348     0.08800
H309        H  0.27318860  0.05222254  0.70022097     0.07900
N310        N  0.29126707  0.01004955  0.58201192    -0.36000
N311        N  0.29102542  0.98129071  0.58190997    -0.28200
C312        C  0.29176479  0.97190339  0.55958816    -0.03400
C313        C  0.29259608  0.99592615  0.54492180     0.05200
C314        C  0.29229278  0.01976922  0.55979114     0.03300
H315        H  0.29078040  0.94925085  0.55443220     0.08400
H316        H  0.29110320  0.04249164  0.55489168     0.07200
O317        O  0.22903594  0.26111445  0.71657555    -0.72800
O318        O  0.30483499  0.24815871  0.75131999    -0.73800
O319        O  0.27268445  0.21723839  0.71673258    -0.62400
O320        O  0.26130399  0.29242775  0.75062706    -0.70800
O321        O  0.23839541  0.26927129  0.77936622    -0.70400
O322        O  0.24837549  0.19417791  0.74463232    -0.61600
O323        O  0.28078992  0.22457864  0.77904920    -0.74100
O324        O  0.20551606  0.23874429  0.74529242    -0.72900
Cu325      Cu  0.26782097  0.25553959  0.73281768     1.04600
Cu326      Cu  0.24245350  0.23088826  0.76303307     1.04300
C327        C  0.20517784  0.25215090  0.72566125     0.93400
C328        C  0.30475364  0.23419344  0.77077919     0.92500
C329        C  0.26220642  0.19375329  0.72517001     0.84700
C330        C  0.24817123  0.29276280  0.77036971     0.91000
O331        O  0.18998639  0.24353874  0.25224168    -0.72800
O332        O  0.26519304  0.23163442  0.21705650    -0.73800
O333        O  0.23395821  0.19953117  0.25126073    -0.62400
O334        O  0.22132165  0.27520909  0.21780097    -0.70800
O335        O  0.24523475  0.29831918  0.24591634    -0.70400
O336        O  0.25768533  0.22261439  0.27950446    -0.61600
O337        O  0.28871523  0.25473796  0.24539886    -0.74100
O338        O  0.21415223  0.26666547  0.28020497    -0.72900
Cu339      Cu  0.22673690  0.23663649  0.23362745     1.04600
Cu340      Cu  0.25222441  0.26133931  0.26374203     1.04300
C341        C  0.19016310  0.25737973  0.27174847     0.93400
C342        C  0.28892658  0.24147505  0.22568483     0.92500
C343        C  0.24807310  0.19897112  0.27059322     0.84700
C344        C  0.23144969  0.29878900  0.22643721     0.91000
O345        O  0.76484718  0.27110262  0.28920361    -0.72800
O346        O  0.68987541  0.25638937  0.25498135    -0.73800
O347        O  0.72263359  0.22644795  0.28989439    -0.62400
O348        O  0.73224323  0.30129465  0.25431683    -0.70800
O349        O  0.75652510  0.27796594  0.22643865    -0.70400
O350        O  0.74674968  0.20328149  0.26184222    -0.61600
O351        O  0.71426419  0.23309843  0.22711310    -0.74100
O352        O  0.78879359  0.24760822  0.26121014    -0.72900
Cu353      Cu  0.72652238  0.26467350  0.27305119     1.04600
Cu354      Cu  0.75238488  0.23971795  0.24318064     1.04300
C355        C  0.78871953  0.26126305  0.28075410     0.93400
C356        C  0.69018536  0.24231477  0.23561411     0.92500
C357        C  0.73354724  0.20295947  0.28157819     0.84700
C358        C  0.74587116  0.30157687  0.23474462     0.91000
N359        N  0.76766011  0.44260113  0.15591440    -0.27100
N360        N  0.76588403  0.45696479  0.17598334    -0.35000
C361        C  0.76281311  0.43767759  0.19357296     0.01200
C362        C  0.76289766  0.40982826  0.18412420     0.07200
C363        C  0.76598721  0.41387200  0.16017523    -0.05900
H364        H  0.76043420  0.44352470  0.21187719     0.07900
H365        H  0.76594527  0.39728510  0.14668267     0.09100
Cu366      Cu  0.76637291  0.50219693  0.17824057     0.44200
Cu367      Cu  0.77047591  0.46252164  0.12346451     0.42000
Cu368      Cu  0.76826352  0.54092675  0.12264189     0.43900
N369        N  0.76500460  0.54733117  0.17513946    -0.34500
N370        N  0.76579371  0.56127246  0.15485906    -0.28800
C371        C  0.76405703  0.59007431  0.15879256    -0.04900
C372        C  0.76173798  0.59458821  0.18271552     0.07300
C373        C  0.76255612  0.56698256  0.19255006     0.01100
H374        H  0.76383408  0.60646665  0.14516308     0.08800
H375        H  0.76159323  0.56147724  0.21098329     0.07900
N376        N  0.77180255  0.51573436  0.09280696    -0.36000
N377        N  0.77265043  0.48699621  0.09308969    -0.28200
C378        C  0.77616417  0.47718182  0.07105253    -0.03400
C379        C  0.77757928  0.50094546  0.05613452     0.05200
C380        C  0.77478628  0.52503501  0.07060222     0.03300
H381        H  0.77860013  0.45444895  0.06648118     0.08400
H382        H  0.77518582  0.54770093  0.06545961     0.07200
N383        N  0.79275171  0.56160440  0.85670203    -0.27100
N384        N  0.79328636  0.54731100  0.83655688    -0.35000
C385        C  0.78902527  0.56628036  0.81894800     0.01200
C386        C  0.78588187  0.59384787  0.82847007     0.07200
C387        C  0.78831220  0.59003765  0.85247262    -0.05900
H388        H  0.78825883  0.56039527  0.80056436     0.07900
H389        H  0.78626893  0.60649963  0.86597142     0.09100
Cu390      Cu  0.79824442  0.50259607  0.83375194     0.44200
Cu391      Cu  0.79665453  0.54203735  0.88909745     0.42000
Cu392      Cu  0.80037472  0.46359388  0.88854430     0.43900
N393        N  0.79781821  0.45757998  0.83598377    -0.34500
N394        N  0.79814897  0.44339890  0.85613158    -0.28800
C395        C  0.79496194  0.41480384  0.85194181    -0.04900
C396        C  0.79264145  0.41058416  0.82789382     0.07300
C397        C  0.79452568  0.43833438  0.81838431     0.01100
H398        H  0.79299047  0.39862150  0.86560740     0.08800
H399        H  0.79280704  0.44428950  0.80007138     0.07900
N400        N  0.80022665  0.48832592  0.91888719    -0.36000
N401        N  0.79892885  0.51705445  0.91906986    -0.28200
C402        C  0.79741884  0.52641592  0.94137586    -0.03400
C403        C  0.79778343  0.50236651  0.95600768     0.05200
C404        C  0.79953669  0.47858669  0.94109493     0.03300
H405        H  0.79471167  0.54898344  0.94638365     0.08400
H406        H  0.79956686  0.45581920  0.94594520     0.07200
N407        N  0.71716973  0.06163588  0.36121987    -0.27100
N408        N  0.71892174  0.04787050  0.34091625    -0.35000
C409        C  0.72256599  0.06752599  0.32374965     0.01200
C410        C  0.72300388  0.09509468  0.33370336     0.07200
C411        C  0.71966309  0.09042378  0.35758079    -0.05900
H412        H  0.72422458  0.06209524  0.30531589     0.07900
H413        H  0.71927609  0.10654664  0.37141756     0.09100
Cu414      Cu  0.71596903  0.00308240  0.33755744     0.44200
Cu415      Cu  0.71049574  0.04059788  0.39265270     0.42000
Cu416      Cu  0.70634820  0.96190349  0.39146399     0.43900
N417        N  0.71431915  0.95806420  0.33899201    -0.34500
N418        N  0.71140716  0.94307778  0.35861984    -0.28800
C419        C  0.71270952  0.91450627  0.35361339    -0.04900
C420        C  0.71637040  0.91116308  0.32954071     0.07300
C421        C  0.71731591  0.93943030  0.32095384     0.01100
H422        H  0.71197554  0.89768288  0.36683003     0.08800
H423        H  0.72023356  0.94616544  0.30292692     0.07900
N424        N  0.70137958  0.98663252  0.42166073    -0.36000
N425        N  0.70276943  0.01534848  0.42182466    -0.28200
C426        C  0.69995487  0.02495884  0.44393263    -0.03400
C427        C  0.69672691  0.00117872  0.45859435     0.05200
C428        C  0.69771485  0.97716636  0.44380162     0.03300
H429        H  0.70094817  0.04765795  0.44894393     0.08400
H430        H  0.69733499  0.95445097  0.44873532     0.07200
N431        N  0.71710071  0.06043454  0.65941221    -0.27100
N432        N  0.72236988  0.04621479  0.67910732    -0.35000
C433        C  0.72700733  0.06565052  0.69637969     0.01200
C434        C  0.72451058  0.09353117  0.68713015     0.07200
C435        C  0.71832379  0.08920315  0.66356018    -0.05900
H436        H  0.73208035  0.05982178  0.71431411     0.07900
H437        H  0.71591312  0.10556841  0.65007482     0.09100
Cu438      Cu  0.72477036  0.00106882  0.68104819     0.44200
Cu439      Cu  0.70992706  0.04041825  0.62743660     0.42000
Cu440      Cu  0.71585377  0.96252182  0.62554937     0.43900
N441        N  0.72854561  0.95620653  0.67717530    -0.34500
N442        N  0.72523302  0.94245699  0.65695908    -0.28800
C443        C  0.72916734  0.91379381  0.66025613    -0.04900
C444        C  0.73544942  0.90912768  0.68367426     0.07300
C445        C  0.73479688  0.93652856  0.69391869     0.01100
H446        H  0.72782486  0.89759797  0.64649543     0.08800
H447        H  0.73812464  0.94184157  0.71221964     0.07900
N448        N  0.70759578  0.98759096  0.59635263    -0.36000
N449        N  0.70551537  0.01625748  0.59704283    -0.28200
C450        C  0.70138282  0.02631996  0.57517508    -0.03400
C451        C  0.70093944  0.00279030  0.55995678     0.05200
C452        C  0.70474867  0.97855864  0.57404302     0.03300
H453        H  0.69902675  0.04910705  0.57080195     0.08400
H454        H  0.70633488  0.95609368  0.56843041     0.07200
O455        O  0.74989456  0.30254684  0.76053946    -0.72800
O456        O  0.73452789  0.22651370  0.72751965    -0.73800
O457        O  0.70514753  0.25962310  0.76232945    -0.62400
O458        O  0.77875858  0.26947154  0.72561720    -0.70800
O459        O  0.80338622  0.24602739  0.75321475    -0.70400
O460        O  0.72941989  0.23589746  0.78996093    -0.61600
O461        O  0.75914013  0.20327115  0.75520233    -0.74100
O462        O  0.77412479  0.27878205  0.78815840    -0.72900
Cu463      Cu  0.74119487  0.26537930  0.74307422     1.04600
Cu464      Cu  0.76732686  0.24022224  0.77262175     1.04300
C465        C  0.76486787  0.30272916  0.77946974     0.93400
C466        C  0.74460539  0.20278962  0.73609683     0.92500
C467        C  0.70542080  0.24582718  0.78178346     0.84700
C468        C  0.80277473  0.25940334  0.73354268     0.91000
O469        O  0.73612239  0.70597255  0.24994112    -0.72800
O470        O  0.72452068  0.78069163  0.28466487    -0.73800
O471        O  0.69302759  0.75006813  0.24978623    -0.62400
O472        O  0.76808190  0.73674830  0.28457514    -0.70800
O473        O  0.79168839  0.76042524  0.25662579    -0.70400
O474        O  0.71741120  0.77338740  0.22204512    -0.61600
O475        O  0.74830704  0.80445866  0.25686778    -0.74100
O476        O  0.76033181  0.72904778  0.22199696    -0.72900
Cu477      Cu  0.72962545  0.74254980  0.26822109     1.04600
Cu478      Cu  0.75528776  0.76763978  0.23843552     1.04300
C479        C  0.74983214  0.70551123  0.23043028     0.93400
C480        C  0.73437430  0.80450725  0.27631242     0.92500
C481        C  0.69341734  0.76386489  0.23030818     0.84700
C482        C  0.79187160  0.74655393  0.27603728     0.91000
O483        O  0.71226958  0.74495172  0.75451246    -0.72800
O484        O  0.78629754  0.72853124  0.72067698    -0.73800
O485        O  0.75400065  0.69963962  0.75602472    -0.62400
O486        O  0.74455291  0.77413662  0.71995081    -0.70800
O487        O  0.76917018  0.79736171  0.74762831    -0.70400
O488        O  0.77820898  0.72350599  0.78356268    -0.61600
O489        O  0.81116557  0.75190047  0.74809405    -0.74100
O490        O  0.73600643  0.76888689  0.78227471    -0.72900
Cu491      Cu  0.74849282  0.73595912  0.73685578     1.04600
Cu492      Cu  0.77455735  0.76118601  0.76636489     1.04300
C493        C  0.71206703  0.75977891  0.77344206     0.93400
C494        C  0.81052275  0.73763347  0.72877458     0.92500
C495        C  0.76749458  0.69982453  0.77565564     0.84700
C496        C  0.75499871  0.79771958  0.72835693     0.91000
C497        C  0.72920502  0.12163436  0.69956195    -0.05300
C498        C  0.74668183  0.12224952  0.71979030    -0.32700
C499        C  0.75196797  0.14831313  0.73178640     0.36500
C500        C  0.73948121  0.17467211  0.72378937    -0.05700
C501        C  0.72190228  0.17403320  0.70359534    -0.32600
C502        C  0.71662190  0.14794203  0.69160776     0.36400
H503        H  0.75681919  0.10249895  0.72623461     0.16800
O504        O  0.76936356  0.14757238  0.75135553    -0.60100
H505        H  0.71191755  0.19384054  0.69707320     0.16800
O506        O  0.69869270  0.14853641  0.67237071    -0.60200
H507        H  0.67900115  0.14402362  0.67848816     0.43800
H508        H  0.78950490  0.15006026  0.74540413     0.43700
C509        C  0.74092325  0.88071585  0.69503638    -0.05300
C510        C  0.72695629  0.85574751  0.68639079    -0.32700
C511        C  0.73132808  0.82856693  0.69688004     0.36500
C512        C  0.75038729  0.82586149  0.71620043    -0.05700
C513        C  0.76459352  0.85087085  0.72463428    -0.32600
C514        C  0.76006710  0.87803362  0.71422102     0.36400
H515        H  0.71203291  0.85734840  0.67171521     0.16800
O516        O  0.71662040  0.80495778  0.68816418    -0.60100
H517        H  0.77941681  0.84947575  0.73939250     0.16800
O518        O  0.77489089  0.90166238  0.72275068    -0.60200
H519        H  0.79334815  0.90220963  0.71370055     0.43800
H520        H  0.69772936  0.80480345  0.69664094     0.43700
C521        C  0.72953207  0.83206222  0.28946812    -0.05300
C522        C  0.71632532  0.83105841  0.31171704    -0.32700
C523        C  0.71143168  0.85641746  0.32476153     0.36500
C524        C  0.72022421  0.88372225  0.31588951    -0.05700
C525        C  0.73305857  0.88474857  0.29346964    -0.32600
C526        C  0.73769010  0.85937967  0.28031681     0.36400
H527        H  0.70954003  0.81045751  0.31914413     0.16800
O528        O  0.69766058  0.85402174  0.34601435    -0.60100
H529        H  0.74003122  0.90524855  0.28604808     0.16800
O530        O  0.74977870  0.86175051  0.25838214    -0.60200
H531        H  0.77111680  0.86225624  0.26103737     0.43800
H532        H  0.67664140  0.85652165  0.34252538     0.43700
C533        C  0.69869969  0.00319953  0.53410407    -0.05300
C534        C  0.68463335  0.98025440  0.52244738    -0.32700
C535        C  0.68332367  0.97938888  0.49788611     0.36500
C536        C  0.69636365  0.00169966  0.48458327    -0.05700
C537        C  0.71008790  0.02479234  0.49634592    -0.32600
C538        C  0.71125755  0.02573366  0.52082211     0.36400
H539        H  0.67445479  0.96296485  0.53241069     0.16800
O540        O  0.66833830  0.95726847  0.48716090    -0.60100
H541        H  0.72080572  0.04191208  0.48659486     0.16800
O542        O  0.72643367  0.04778336  0.53147022    -0.60200
H543        H  0.71370763  0.06520338  0.53022744     0.43800
H544        H  0.68079720  0.93972968  0.48897486     0.43700
C545        C  0.78643919  0.38293231  0.81527497    -0.05300
C546        C  0.77214369  0.38367858  0.79345910    -0.32700
C547        C  0.76488843  0.35795715  0.78159701     0.36500
C548        C  0.77195290  0.33062814  0.79145871    -0.05700
C549        C  0.78673854  0.32996164  0.81307346    -0.32600
C550        C  0.79415209  0.35564409  0.82482623     0.36400
H551        H  0.76601423  0.40427237  0.78562958     0.16800
O552        O  0.75135638  0.35994976  0.76019069    -0.60100
H553        H  0.79283907  0.30937834  0.82096966     0.16800
O554        O  0.80936232  0.35363134  0.84547519    -0.60200
H555        H  0.83018010  0.35473907  0.84091331     0.43800
H556        H  0.73033823  0.36208415  0.76380637     0.43700
C557        C  0.78045942  0.62121163  0.81559517    -0.05300
C558        C  0.76350855  0.62066865  0.79511566    -0.32700
C559        C  0.75868643  0.64602372  0.78208541     0.36500
C560        C  0.77111302  0.67262173  0.78938890    -0.05700
C561        C  0.78771662  0.67313266  0.81015093    -0.32600
C562        C  0.79244846  0.64778743  0.82317344     0.36400
H563        H  0.75376124  0.60049387  0.78921014     0.16800
O564        O  0.74141459  0.64451281  0.76247901    -0.60100
H565        H  0.79751513  0.69319630  0.81624018     0.16800
O566        O  0.80949410  0.64919072  0.84291566    -0.60200
H567        H  0.82955065  0.64477734  0.83745549     0.43800
H568        H  0.75451909  0.63787246  0.74971200     0.43700
C569        C  0.75311676  0.67741653  0.21773028    -0.05300
C570        C  0.73842090  0.65273149  0.22620866    -0.32700
C571        C  0.74104320  0.62573481  0.21502789     0.36500
C572        C  0.75855242  0.62290079  0.19487797    -0.05700
C573        C  0.77286696  0.64756645  0.18606291    -0.32600
C574        C  0.77029443  0.67463668  0.19726954     0.36400
H575        H  0.72457287  0.65426266  0.24156492     0.12800
O576        O  0.72513757  0.60263921  0.22323449    -0.60100
H577        H  0.78644998  0.64580379  0.17056537     0.16800
O578        O  0.78518528  0.69796172  0.18830402    -0.60200
H579        H  0.77233734  0.70607668  0.17590990     0.43800
H580        H  0.73511799  0.59633982  0.23780714     0.43700
C581        C  0.79358463  0.50189185  0.98172860    -0.05300
C582        C  0.77894145  0.47836153  0.99203902    -0.32700
C583        C  0.77340941  0.47780939  0.01614696     0.36500
C584        C  0.78287865  0.50091436  0.03052589    -0.05700
C585        C  0.79774483  0.52434888  0.02023952    -0.32600
C586        C  0.80329986  0.52488072  0.99611754     0.36400
H587        H  0.77095878  0.46061797  0.98130926     0.16800
O588        O  0.75804385  0.45490215  0.02527190    -0.60100
H589        H  0.80562273  0.54213910  0.03097232     0.16800
O590        O  0.81866944  0.54775999  0.98693836    -0.60200
H591        H  0.83926079  0.54114117  0.98669594     0.43800
H592        H  0.73736327  0.46118476  0.02488701     0.43700
C593        C  0.74959489  0.32933508  0.22164592    -0.05300
C594        C  0.76789904  0.33012833  0.20183887    -0.32700
C595        C  0.77241157  0.35606336  0.18945819     0.36500
C596        C  0.75858377  0.38198154  0.19677571    -0.05700
C597        C  0.74019331  0.38123169  0.21643941    -0.32600
C598        C  0.73533901  0.35525033  0.22864272     0.36400
H599        H  0.77910100  0.31062709  0.19599651     0.16800
O600        O  0.79088248  0.35586251  0.17052992    -0.60100
H601        H  0.72902578  0.40080485  0.22216519     0.16800
O602        O  0.71653398  0.35558552  0.24735319    -0.60200
H603        H  0.69717252  0.35089850  0.24062188     0.43800
H604        H  0.81032477  0.36068431  0.17701389     0.43700
C605        C  0.73113923  0.17533626  0.29497748    -0.05300
C606        C  0.71670829  0.17507268  0.31676353    -0.32700
C607        C  0.71404716  0.14932439  0.32973160     0.36500
C608        C  0.72612788  0.12312653  0.32108819    -0.05700
C609        C  0.74084384  0.12348502  0.29950884    -0.32600
C610        C  0.74333391  0.14909087  0.28647213     0.36400
H611        H  0.70715633  0.19485743  0.32376697     0.16800
O612        O  0.69903614  0.15006107  0.35053650    -0.60100
H613        H  0.75066925  0.10378446  0.29261806     0.16800
O614        O  0.75814402  0.14811132  0.26557169    -0.60200
H615        H  0.74352690  0.14194180  0.25376908     0.43800
H616        H  0.67861740  0.14535405  0.34636093     0.43700
C617        C  0.27352773  0.11407521  0.68610979    -0.05300
C618        C  0.25927655  0.11385005  0.70793039    -0.32700
C619        C  0.25568550  0.13938604  0.72096060     0.36500
C620        C  0.26610064  0.16608813  0.71213442    -0.05700
C621        C  0.28046073  0.16632155  0.69034020    -0.32600
C622        C  0.28439106  0.14070597  0.67745380     0.36400
H623        H  0.25048752  0.09383220  0.71496095     0.16800
O624        O  0.24154861  0.13788917  0.74213723    -0.60100
H625        H  0.28889268  0.18645530  0.68318391     0.16800
O626        O  0.29925507  0.14210918  0.65661459    -0.60200
H627        H  0.31994133  0.13846659  0.66074843     0.43800
H628        H  0.25694445  0.13324183  0.75376457     0.43700
C629        C  0.25359873  0.17067440  0.28241169    -0.05300
C630        C  0.24753873  0.14457641  0.27047098    -0.32700
C631        C  0.25286553  0.11747550  0.28090817     0.36500
C632        C  0.26425653  0.11599941  0.30387879    -0.05700
C633        C  0.27040005  0.14208766  0.31577276    -0.32600
C634        C  0.26511347  0.16914761  0.30534940     0.36400
H635        H  0.23859674  0.14505237  0.25287472     0.16800
O636        O  0.24546146  0.09271795  0.26886577    -0.60100
H637        H  0.27942321  0.14164279  0.33333072     0.16800
O638        O  0.27129826  0.19389148  0.31786954    -0.60200
H639        H  0.25328428  0.19830070  0.32683696     0.43800
H640        H  0.26098248  0.09009699  0.25690168     0.43700
C641        C  0.28217948  0.99591685  0.46996275    -0.05300
C642        C  0.29847485  0.01792729  0.48086977    -0.32700
C643        C  0.30251490  0.01800680  0.50521520     0.36500
C644        C  0.28987880  0.99598830  0.51908191    -0.05700
C645        C  0.27361162  0.97401498  0.50812563    -0.32600
C646        C  0.26951988  0.97397155  0.48384838     0.36400
H647        H  0.30856990  0.03485474  0.47045997     0.16800
O648        O  0.31921200  0.03943874  0.51515944    -0.60100
H649        H  0.26327771  0.95717346  0.51846246     0.16800
O650        O  0.25240268  0.95279471  0.47401117    -0.60200
H651        H  0.23254153  0.96131892  0.47341313     0.43800
H652        H  0.33919043  0.03118771  0.51592492     0.43700
C653        C  0.12354175  0.26767597  0.68931918    -0.05300
C654        C  0.12399530  0.26115573  0.71348622    -0.32700
C655        C  0.15017032  0.25601653  0.72544688     0.36500
C656        C  0.17700305  0.25733543  0.71342591    -0.05700
C657        C  0.17676840  0.26375819  0.68936302    -0.32600
C658        C  0.15057576  0.26877287  0.67731092     0.36400
H659        H  0.10403468  0.26016484  0.72350872     0.16800
O660        O  0.14911801  0.24992341  0.74900220    -0.60100
H661        H  0.19704956  0.26460085  0.67965054     0.16800
O662        O  0.15198243  0.27390185  0.65366829    -0.60200
H663        H  0.15738084  0.29471158  0.65218117     0.43800
H664        H  0.15038016  0.26910360  0.75694705     0.43700
C665        C  0.88276594  0.26985344  0.69467775    -0.05300
C666        C  0.85772655  0.28556939  0.68825143    -0.32700
C667        C  0.83162923  0.28248801  0.70067455     0.36500
C668        C  0.83004072  0.26317483  0.71991039    -0.05700
C669        C  0.85502313  0.24722981  0.72617949    -0.32600
C670        C  0.88108226  0.25024692  0.71368880     0.36400
H671        H  0.85844239  0.30084759  0.67379670     0.16800
O672        O  0.80794104  0.29870069  0.69388030    -0.60100
H673        H  0.85434858  0.23201339  0.74069060     0.16800
O674        O  0.90452740  0.23344050  0.72003099    -0.60200
H675        H  0.90336918  0.21585303  0.70997058     0.43800
H676        H  0.80940305  0.31713678  0.70286621     0.43700
C677        C  0.16246850  0.26281756  0.28456372    -0.05300
C678        C  0.13659334  0.24967007  0.27678449    -0.32700
C679        C  0.11018589  0.25426335  0.28859571     0.36500
C680        C  0.10930017  0.27209475  0.30876698    -0.05700
C681        C  0.13507520  0.28535501  0.31647065    -0.32600
C682        C  0.16136163  0.28110614  0.30452358     0.36400
H683        H  0.13677613  0.23545574  0.26159538     0.16800
O684        O  0.08578429  0.23989996  0.28099634    -0.60100
H685        H  0.13486615  0.29942347  0.33174505     0.16800
O686        O  0.18580454  0.29491086  0.31269705    -0.60200
H687        H  0.18594550  0.31408931  0.30469228     0.43800
H688        H  0.07955634  0.25028894  0.26656363     0.43700
C689        C  0.81656030  0.26528385  0.29352749    -0.05300
C690        C  0.84171999  0.25109120  0.28525137    -0.32700
C691        C  0.86858490  0.25469508  0.29639975     0.36500
C692        C  0.87079111  0.27286904  0.31626231    -0.05700
C693        C  0.84555819  0.28647493  0.32495517    -0.32600
C694        C  0.81860380  0.28269566  0.31389539     0.36400
H695        H  0.84068544  0.23692258  0.27005726     0.16800
O696        O  0.89218345  0.23919250  0.28839116    -0.60100
H697        H  0.84672888  0.30049462  0.34022423     0.16800
O698        O  0.79463846  0.29668308  0.32291004    -0.60200
H699        H  0.78706409  0.28350362  0.33526145     0.43800
H700        H  0.89764105  0.24841594  0.27326889     0.43700
C701        C  0.99723887  0.30704992  0.47829063    -0.05300
C702        C  0.01959526  0.29266015  0.49048512    -0.32700
C703        C  0.02052701  0.29279573  0.51502487     0.36500
C704        C  0.99907160  0.30791300  0.52800188    -0.05700
C705        C  0.97690818  0.32268957  0.51582085    -0.32600
C706        C  0.97599741  0.32254617  0.49120812     0.36400
H707        H  0.03598455  0.28035905  0.48100684     0.16800
O708        O  0.04195605  0.27708284  0.52606059    -0.60100
H709        H  0.96034354  0.33463399  0.52540841     0.16800
O710        O  0.95442938  0.33791767  0.48003131    -0.60200
H711        H  0.96308324  0.35721856  0.47658781     0.43800
H712        H  0.03332252  0.25765018  0.52895499     0.43700
C713        C  0.23944981  0.37306864  0.80837012    -0.05300
C714        C  0.23852162  0.37294639  0.78369285    -0.32700
C715        C  0.24115633  0.34696711  0.77107662     0.36500
C716        C  0.24464865  0.32042673  0.78309711    -0.05700
C717        C  0.24537424  0.32038706  0.80767129    -0.32600
C718        C  0.24303788  0.34637133  0.82033395     0.36400
H719        H  0.23546581  0.39300601  0.77402752     0.16800
O720        O  0.24002400  0.34778197  0.74701711    -0.60100
H721        H  0.24857064  0.30017245  0.81714557     0.16800
O722        O  0.24603741  0.34545833  0.84426931    -0.60200
H723        H  0.22767674  0.33682580  0.85019219     0.43800
H724        H  0.21931502  0.34420235  0.74299494     0.43700
C725        C  0.22060121  0.37863004  0.18743509    -0.05300
C726        C  0.23532336  0.37870641  0.20904354    -0.32700
C727        C  0.23868007  0.35315057  0.22210213     0.36500
C728        C  0.22741531  0.32660010  0.21355614    -0.05700
C729        C  0.21232623  0.32663070  0.19207791    -0.32600
C730        C  0.20889703  0.35224170  0.17905338     0.36400
H731        H  0.24466707  0.39863286  0.21582853     0.16800
O732        O  0.25347993  0.35445240  0.24298945    -0.60100
H733        H  0.20305266  0.30669472  0.18522374     0.16800
O734        O  0.19289850  0.35138371  0.15873052    -0.60200
H735        H  0.20554067  0.34143431  0.14707707     0.43800
H736        H  0.23856586  0.35968625  0.25488970     0.43700
C737        C  0.19849551  0.49613951  0.97099329    -0.05300
C738        C  0.20825043  0.52063272  0.98348494    -0.32700
C739        C  0.20691406  0.52160894  0.00797136     0.36500
C740        C  0.19548418  0.49784926  0.02058976    -0.05700
C741        C  0.18525661  0.47354355  0.00816061    -0.32600
C742        C  0.18642214  0.47263446  0.98362047     0.36400
H743        H  0.21789217  0.53888732  0.97437262     0.16800
O744        O  0.21790982  0.54551868  0.01931387    -0.60100
H745        H  0.17608290  0.45518711  0.01749526     0.16800
O746        O  0.17547122  0.44870599  0.97229177    -0.60200
H747        H  0.15498535  0.45380605  0.96853476     0.43800
H748        H  0.23852371  0.54058593  0.02272702     0.43700
C749        C  0.38569622  0.22114295  0.80868170    -0.05300
C750        C  0.35946426  0.20970002  0.81733460    -0.32700
C751        C  0.33313009  0.21370170  0.80531523     0.36500
C752        C  0.33246399  0.22925902  0.78390065    -0.05700
C753        C  0.35874442  0.24054536  0.77515527    -0.32600
C754        C  0.38504370  0.23679898  0.78733406     0.36400
H755        H  0.35923335  0.19736749  0.83352148     0.16800
O756        O  0.30827783  0.20191296  0.81465643    -0.60100
H757        H  0.35896830  0.25272325  0.75888030     0.16800
O758        O  0.40976195  0.24916496  0.77831556    -0.60200
H759        H  0.41082520  0.26876271  0.78561218     0.43800
H760        H  0.30098980  0.21663975  0.82598037     0.43700
C761        C  0.62498137  0.22715112  0.81796505    -0.05300
C762        C  0.62537782  0.24714199  0.79934531    -0.32700
C763        C  0.65136304  0.25403450  0.78781700     0.36500
C764        C  0.67774795  0.24053642  0.79459769    -0.05700
C765        C  0.67733361  0.22065356  0.81335187    -0.32600
C766        C  0.65132935  0.21398042  0.82502686     0.36400
H767        H  0.60545682  0.25780042  0.79378807     0.16800
O768        O  0.65050774  0.27379473  0.76979125    -0.60100
H769        H  0.69715205  0.20967946  0.81875872     0.16800
O770        O  0.65169020  0.19326486  0.84235311    -0.60200
H771        H  0.66072337  0.20289840  0.85613999     0.43800
H772        H  0.65354420  0.29303299  0.77733153     0.43700
C773        C  0.37154569  0.23082065  0.19043579    -0.05300
C774        C  0.34643771  0.21748938  0.18136064    -0.32700
C775        C  0.31938935  0.22074935  0.19245481     0.36500
C776        C  0.31697970  0.23775392  0.21302821    -0.05700
C777        C  0.34205127  0.25153095  0.22179136    -0.32600
C778        C  0.36899644  0.24839218  0.21064105     0.36400
H779        H  0.34779237  0.20393600  0.16582943     0.16800
O780        O  0.29556584  0.20715704  0.18296785    -0.60100
H781        H  0.34085203  0.26508048  0.23734284     0.16800
O782        O  0.39251699  0.26308801  0.21951006    -0.60200
H783        H  0.39287026  0.28187707  0.21095547     0.43800
H784        H  0.29570687  0.18728736  0.18975128     0.43700
C785        C  0.61092723  0.22380109  0.19786413    -0.05300
C786        C  0.61080168  0.24411645  0.21631401    -0.32700
C787        C  0.63632372  0.25054389  0.22869006     0.36500
C788        C  0.66266449  0.23631232  0.22288824    -0.05700
C789        C  0.66267812  0.21582438  0.20453271    -0.32600
C790        C  0.63716768  0.20941271  0.19218787     0.36400
H791        H  0.59095527  0.25560127  0.22090604     0.16800
O792        O  0.63518424  0.27093905  0.24627474    -0.60100
H793        H  0.68250628  0.20435250  0.19983784     0.16800
O794        O  0.63814102  0.18861727  0.17491468    -0.60200
H795        H  0.63288290  0.17013421  0.18282889     0.43800
H796        H  0.63922233  0.28980562  0.23846958     0.43700
C797        C  0.49846279  0.19478391  0.02907013    -0.05300
C798        C  0.47467715  0.18344307  0.01655715    -0.32700
C799        C  0.47467207  0.18272438  0.99197297     0.36500
C800        C  0.49861821  0.19383605  0.97931592    -0.05700
C801        C  0.52247881  0.20495622  0.99187517    -0.32600
C802        C  0.52250412  0.20564383  0.01641816     0.36400
H803        H  0.45606712  0.17471532  0.02585630     0.16800
O804        O  0.45125861  0.17072780  0.98062849    -0.60100
H805        H  0.54101251  0.21398757  0.98269036     0.16800
O806        O  0.54583572  0.21787473  0.02771599    -0.60200
H807        H  0.54069685  0.23873598  0.02960401     0.43800
H808        H  0.45663306  0.15004701  0.97802311     0.43700
C809        C  0.26654104  0.82093826  0.70936683    -0.05300
C810        C  0.28399078  0.82254224  0.68912655    -0.32700
C811        C  0.28670808  0.84859445  0.67652655     0.36500
C812        C  0.27195345  0.87388940  0.68411300    -0.05700
C813        C  0.25450860  0.87235627  0.70431778    -0.32600
C814        C  0.25169672  0.84631032  0.71688655     0.36400
H815        H  0.29589727  0.80356986  0.68306087     0.16800
O816        O  0.30507889  0.84939007  0.65754873    -0.60100
H817        H  0.24269204  0.89140206  0.71034637     0.16800
O818        O  0.23381111  0.84587971  0.73617650    -0.60200
H819        H  0.24592163  0.85327060  0.74929698     0.43800
H820        H  0.29463761  0.83897987  0.64482992     0.43700
C821        C  0.25294116  0.66560920  0.78193301    -0.05300
C822        C  0.26988954  0.64139248  0.77533499    -0.32700
C823        C  0.26857424  0.61524105  0.78795454     0.36500
C824        C  0.24960546  0.61263697  0.80735116    -0.05700
C825        C  0.23306696  0.63698123  0.81416356    -0.32600
C826        C  0.23456576  0.66316984  0.80173310     0.36400
H827        H  0.28457406  0.64277942  0.76048851     0.16800
O828        O  0.28633998  0.59262631  0.78133087    -0.60100
H829        H  0.21829130  0.63566463  0.82893802     0.16800
O830        O  0.21775957  0.68615469  0.80914410    -0.60200
H831        H  0.19882547  0.68377044  0.80099640     0.43800
H832        H  0.30415670  0.59471756  0.79104473     0.43700
C833        C  0.12935393  0.71694363  0.68604234    -0.05300
C834        C  0.12884727  0.72638679  0.70954288    -0.32700
C835        C  0.15463457  0.73157791  0.72194648     0.36500
C836        C  0.18186731  0.72728337  0.71098388    -0.05700
C837        C  0.18245268  0.71763034  0.68757740    -0.32600
C838        C  0.15668104  0.71234341  0.67518631     0.36400
H839        H  0.10838388  0.73022605  0.71846252     0.16800
O840        O  0.15282412  0.74018851  0.74496778    -0.60100
H841        H  0.20304999  0.71408851  0.67871035     0.16800
O842        O  0.15874612  0.70235984  0.65256922    -0.60200
H843        H  0.15852925  0.68085304  0.65385416     0.43800
H844        H  0.14973328  0.76154371  0.74442251     0.43700
C845        C  0.89057881  0.72155585  0.69098263    -0.05300
C846        C  0.86430475  0.70966727  0.68293003    -0.32700
C847        C  0.83816045  0.71463650  0.69494755     0.36500
C848        C  0.83788864  0.73179508  0.71559314    -0.05700
C849        C  0.86421492  0.74393784  0.72345009    -0.32600
C850        C  0.89035061  0.73895891  0.71136807     0.36400
H851        H  0.86401965  0.69618875  0.66730962     0.16800
O852        O  0.81315811  0.70218193  0.68644885    -0.60100
H853        H  0.86461823  0.75764031  0.73893550     0.16800
O854        O  0.91521461  0.75256512  0.71890727    -0.60200
H855        H  0.92128843  0.74188255  0.73322323     0.43800
H856        H  0.80571857  0.71601112  0.67448253     0.43700
C857        C  0.87486520  0.73214548  0.30973311    -0.05300
C858        C  0.84924022  0.72122940  0.31991590    -0.32700
C859        C  0.82201110  0.72609510  0.30952283     0.36500
C860        C  0.82001267  0.74184787  0.28831506    -0.05700
C861        C  0.84563136  0.75322739  0.27843303    -0.32600
C862        C  0.87272264  0.74876762  0.28900515     0.36400
H863        H  0.85025313  0.70849014  0.33588297     0.16800
O864        O  0.79767720  0.71482327  0.32007715    -0.60100
H865        H  0.84479823  0.76583579  0.26238237     0.16800
O866        O  0.89680709  0.76127052  0.27902152    -0.60200
H867        H  0.89885579  0.78040988  0.28691511     0.43800
H868        H  0.79144404  0.72981038  0.33160529     0.43700
C869        C  0.00249797  0.70989431  0.47161211    -0.05300
C870        C  0.97933994  0.69712910  0.48395898    -0.32700
C871        C  0.97970309  0.69533529  0.50845612     0.36500
C872        C  0.00342923  0.70668912  0.52122911    -0.05700
C873        C  0.02658916  0.71946973  0.50889717    -0.32600
C874        C  0.02618451  0.72135034  0.48439432     0.36400
H875        H  0.96103219  0.68787410  0.47460592     0.16800
O876        O  0.95696137  0.68184819  0.51958247    -0.60100
H877        H  0.04487651  0.72873041  0.51827532     0.16800
O878        O  0.04879962  0.73507972  0.47329211    -0.60200
H879        H  0.04252843  0.75564643  0.47172823     0.43800
H880        H  0.96314922  0.66126175  0.52136117     0.43700
C881        C  0.39152779  0.76250969  0.80296223    -0.05300
C882        C  0.36496365  0.76457621  0.81525536    -0.32700
C883        C  0.33822066  0.76130228  0.80383949     0.36500
C884        C  0.33735092  0.75623688  0.77946868    -0.05700
C885        C  0.36368854  0.75392981  0.76710452    -0.32600
C886        C  0.39051926  0.75704821  0.77850649     0.36400
H887        H  0.36454780  0.76878447  0.83391537     0.16800
O888        O  0.31310667  0.76269192  0.81686011    -0.60100
H889        H  0.36358972  0.74969342  0.74838669     0.16800
O890        O  0.41541395  0.75376057  0.76549496    -0.60200
H891        H  0.41772984  0.77240489  0.75691535     0.43800
H892        H  0.30917887  0.74232151  0.82170240     0.43700
C893        C  0.63025993  0.78049825  0.80670459    -0.05300
C894        C  0.63125633  0.76096267  0.78781292    -0.32700
C895        C  0.65757518  0.75408376  0.77686208     0.36500
C896        C  0.68383263  0.76670560  0.78483498    -0.05700
C897        C  0.68274524  0.78670451  0.80352649    -0.32600
C898        C  0.65623508  0.79377286  0.81432933     0.36400
H899        H  0.61162124  0.75028669  0.78178126     0.16800
O900        O  0.65732247  0.73424973  0.75883858    -0.60100
H901        H  0.70245428  0.79711625  0.80971449     0.16800
O902        O  0.65599029  0.81387678  0.83214471    -0.60200
H903        H  0.65128602  0.83270767  0.82447647     0.43800
H904        H  0.65224419  0.74565022  0.74463377     0.43700
C905        C  0.61516824  0.78013443  0.19075732    -0.05300
C906        C  0.61464793  0.76070072  0.20975583    -0.32700
C907        C  0.63986952  0.75495819  0.22275164     0.36500
C908        C  0.66615969  0.76916686  0.21706571    -0.05700
C909        C  0.66647779  0.78884196  0.19816047    -0.32600
C910        C  0.64131731  0.79442260  0.18512823     0.36400
H911        H  0.59474491  0.74938169  0.21426188     0.16800
O912        O  0.63850696  0.73526063  0.24079842    -0.60100
H913        H  0.68627830  0.80024579  0.19350028     0.16800
O914        O  0.64247546  0.81431219  0.16721125    -0.60200
H915        H  0.63671127  0.83313469  0.17441679     0.43800
H916        H  0.64289272  0.71611717  0.23351282     0.43700
C917        C  0.50643619  0.79533354  0.97108519    -0.05300
C918        C  0.48277587  0.80921893  0.98204876    -0.32700
C919        C  0.48121877  0.81131279  0.00656336     0.36500
C920        C  0.50354849  0.79929437  0.02055571    -0.05700
C921        C  0.52736573  0.78573502  0.00953300    -0.32600
C922        C  0.52895397  0.78370063  0.98506142     0.36400
H923        H  0.46550643  0.81874269  0.97157494     0.16800
O924        O  0.45842921  0.82619619  0.01659019    -0.60100
H925        H  0.54453532  0.77589537  0.01991080     0.16800
O926        O  0.55169564  0.76868255  0.97509281    -0.60200
H927        H  0.56878121  0.78173094  0.97649452     0.43800
H928        H  0.44126342  0.81332851  0.01476924     0.43700
C929        C  0.25826220  0.82346774  0.28063654    -0.05300
C930        C  0.24450643  0.84884814  0.27236196    -0.32700
C931        C  0.24809597  0.87545335  0.28386357     0.36500
C932        C  0.26556499  0.87703001  0.30408846    -0.05700
C933        C  0.27882437  0.85168573  0.31274471    -0.32600
C934        C  0.27534682  0.82504275  0.30122444     0.36400
H935        H  0.23078046  0.84818702  0.25690136     0.16800
O936        O  0.23324178  0.89945361  0.27589027    -0.60100
H937        H  0.29232463  0.85260428  0.32833281     0.16800
O938        O  0.28934614  0.80095842  0.30997935    -0.60200
H939        H  0.27606930  0.79307625  0.32213711     0.43800
H940        H  0.24373641  0.90568580  0.26153745     0.43700
C941        C  0.23456183  0.67077587  0.20763598    -0.05300
C942        C  0.21476252  0.67029496  0.18882012    -0.32700
C943        C  0.20825737  0.64430779  0.17718220     0.36500
C944        C  0.22181108  0.61811014  0.18413461    -0.05700
C945        C  0.24186492  0.61863094  0.20272370    -0.32600
C946        C  0.24842834  0.64459480  0.21433770     0.36400
H947        H  0.20371288  0.69003847  0.18335891     0.16800
O948        O  0.18803069  0.64477159  0.15947156    -0.60100
H949        H  0.25286447  0.59886486  0.20816941     0.16800
O950        O  0.26834822  0.64395517  0.23227982    -0.60200
H951        H  0.28744992  0.64758324  0.22470689     0.43800
H952        H  0.16917831  0.64037139  0.16716923     0.43700
C953        C  0.32522534  0.76239719  0.20962433    -0.05300
C954        C  0.32469287  0.77637126  0.18766969    -0.32700
C955        C  0.35044606  0.78261534  0.17555129     0.36500
C956        C  0.37764604  0.77447956  0.18506689    -0.05700
C957        C  0.37825063  0.76080505  0.20714215    -0.32600
C958        C  0.35249712  0.75492302  0.21944101     0.36400
H959        H  0.30416601  0.78274970  0.17979027     0.16800
O960        O  0.34860042  0.79714977  0.15459709    -0.60100
H961        H  0.39876703  0.75425342  0.21491732     0.16800
O962        O  0.35439643  0.74165400  0.24094848    -0.60200
H963        H  0.35669557  0.75778286  0.25239538     0.43800
H964        H  0.35028577  0.81806319  0.15870352     0.43700
C965        C  0.16907960  0.73451810  0.27840293    -0.05300
C966        C  0.14350792  0.74727003  0.26938126    -0.32700
C967        C  0.11678857  0.74441824  0.28101248     0.36500
C968        C  0.11509117  0.72841225  0.30207629    -0.05700
C969        C  0.14055959  0.71558515  0.31105804    -0.32600
C970        C  0.16725414  0.71833061  0.29941796     0.36400
H971        H  0.14417956  0.75990205  0.25334125     0.16800
O972        O  0.09271119  0.75801799  0.27185022    -0.60100
H973        H  0.13981164  0.70299691  0.32711239     0.16800
O974        O  0.19140168  0.70529022  0.30898704    -0.60200
H975        H  0.19152467  0.68520915  0.30255738     0.43800
H976        H  0.09208858  0.77741416  0.27951529     0.43700
loop_ 
_geom_bond_atom_site_label_1 
_geom_bond_atom_site_label_2 
_geom_bond_distance 
_geom_bond_site_symmetry_2 
_ccdc_geom_bond_type 
O1           Cu9   2.001       .  S
O1           C11   1.278       .  A
O2           Cu9   1.997       .  S
O2           C12   1.278       .  A
O3           Cu9   2.007       .  S
O3           C13   1.278       .  A
O4           Cu9   2.006       .  S
O4           C14   1.278       .  A
O5          Cu10   2.012       .  S
O5           C14   1.279       .  A
O6          Cu10   2.014       .  S
O6           C13   1.279       .  A
O7          Cu10   1.997       .  S
O7           C12   1.276       .  A
O8          Cu10   1.998       .  S
O8           C11   1.277       .  A
Cu9         Cu10   2.368       .  S
C11         C941   1.481       .  S
C12         C929   1.479       .  S
C13         C953   1.488       .  S
C14         C965   1.488       .  S
N15          N16   1.321       .  A
N15          C19   1.344       .  A
N15         Cu23   2.068       .  S
N16          C17   1.342       .  A
N16         Cu22   2.062       .  S
C17          C18   1.382       .  A
C17          H20   1.082       .  S
C18         C905   1.475       .  S
C18          C19   1.385       .  A
C19          H21   1.082       .  S
Cu22         N25   2.063       .  S
Cu23         N33   2.069       .  S
Cu24         N26   2.078       .  S
Cu24         N32   2.078       .  S
N25          N26   1.320       .  A
N25          C29   1.343       .  A
N26          C27   1.345       .  A
C27          C28   1.390       .  A
C27          H30   1.081       .  S
C28         C956   1.488       .  S
C28          C29   1.386       .  A
C29          H31   1.082       .  S
N32          N33   1.322       .  A
N32          C36   1.345       .  A
N33          C34   1.343       .  A
C34          C35   1.385       .  A
C34          H37   1.082       .  S
C35         C920   1.482       .  S
C35          C36   1.386       .  A
C36          H38   1.081       .  S
N39          N40   1.321       .  A
N39          C43   1.344       .  A
N39         Cu47   2.064       .  S
N40          C41   1.342       .  A
N40         Cu46   2.064       .  S
C41          C42   1.385       .  A
C41          H44   1.082       .  S
C42         C893   1.477       .  S
C42          C43   1.384       .  A
C43          H45   1.082       .  S
Cu46         N49   2.064       .  S
Cu47         N57   2.065       .  S
Cu48         N50   2.072       .  S
Cu48         N56   2.073       .  S
N49          N50   1.319       .  A
N49          C53   1.343       .  A
N50          C51   1.342       .  A
C51          C52   1.392       .  A
C51          H54   1.080       .  S
C52         C881   1.495       .  S
C52          C53   1.391       .  A
C53          H55   1.078       .  S
N56          N57   1.321       .  A
N56          C60   1.345       .  A
N57          C58   1.343       .  A
C58          C59   1.384       .  A
C58          H61   1.081       .  S
C59         C917   1.479       .  S
C59          C60   1.385       .  A
C60          H62   1.082       .  S
N63          N64   1.321       .  A
N63          C67   1.343       .  A
N63         Cu71   2.068       .  S
N64          C65   1.345       .  A
N64         Cu70   2.073   1_455  S
C65          C66   1.388       .  A
C65          H68   1.081       .  S
C66         C968   1.484       .  S
C66          C67   1.385       .  A
C67          H69   1.082       .  S
Cu70         N73   2.072       .  S
Cu71         N81   2.068       .  S
Cu72         N74   2.066       .  S
Cu72         N80   2.066       .  S
N73          N74   1.321       .  A
N73          C77   1.343       .  A
N74          C75   1.343       .  A
C75          C76   1.385       .  A
C75          H78   1.082       .  S
C76         C857   1.483       .  S
C76          C77   1.387       .  A
C77          H79   1.081       .  S
N80          N81   1.320   1_655  A
N80          C84   1.343       .  A
N81          C82   1.343       .  A
C82          C83   1.387       .  A
C82          H85   1.081       .  S
C83         C869   1.483       .  S
C83          C84   1.386   1_455  A
C84          H86   1.082       .  S
N87          N88   1.320       .  A
N87          C91   1.343       .  A
N87         Cu95   2.069       .  S
N88          C89   1.343       .  A
N88         Cu94   2.073       .  S
C89          C90   1.389       .  A
C89          H92   1.081       .  S
C90         C833   1.491       .  S
C90          C91   1.389       .  A
C91          H93   1.080       .  S
Cu94         N97   2.073   1_455  S
Cu95        N105   2.069       .  S
Cu96         N98   2.069       .  S
Cu96        N104   2.068       .  S
N97          N98   1.321       .  A
N97         C101   1.344       .  A
N98          C99   1.344       .  A
C99         C100   1.385       .  A
C99         H102   1.082       .  S
C100        C845   1.481       .  S
C100        C101   1.386       .  A
C101        H103   1.081       .  S
N104        N105   1.321   1_655  A
N104        C108   1.343       .  A
N105        C106   1.344       .  A
C106        C107   1.386       .  A
C106        H109   1.082       .  S
C107        C872   1.483       .  S
C107        C108   1.386   1_455  A
C108        H110   1.081       .  S
O111       Cu119   2.008       .  S
O111        C121   1.278       .  A
O112       Cu119   2.007       .  S
O112        C122   1.278       .  A
O113       Cu119   2.006       .  S
O113        C123   1.277       .  A
O114       Cu119   2.000       .  S
O114        C124   1.277       .  A
O115       Cu120   2.020       .  S
O115        C124   1.280       .  A
O116       Cu120   2.018       .  S
O116        C123   1.280       .  A
O117       Cu120   2.000       .  S
O117        C122   1.277       .  A
O118       Cu120   2.004       .  S
O118        C121   1.278       .  A
Cu119      Cu120   2.368       .  S
C121        C836   1.485       .  S
C122        C884   1.480       .  S
C123        C809   1.489       .  S
C124        C821   1.487       .  S
N125        N126   1.321       .  A
N125        C129   1.344       .  A
N125       Cu133   2.070       .  S
N126        C127   1.343       .  A
N126       Cu132   2.068       .  S
C127        C128   1.386       .  A
C127        H130   1.081       .  S
C128        C773   1.483       .  S
C128        C129   1.386       .  A
C129        H131   1.082       .  S
Cu132       N135   2.068       .  S
Cu133       N143   2.071       .  S
Cu134       N136   2.071       .  S
Cu134       N142   2.072       .  S
N135        N136   1.321       .  A
N135        C139   1.343       .  A
N136        C137   1.344       .  A
C137        C138   1.386       .  A
C137        H140   1.081       .  S
C138        C785   1.481       .  S
C138        C139   1.385       .  A
C139        H141   1.082       .  S
N142        N143   1.321       .  A
N142        C146   1.344       .  A
N143        C144   1.344       .  A
C144        C145   1.386       .  A
C144        H147   1.082       .  S
C145        C797   1.484       .  S
C145        C146   1.387       .  A
C146        H148   1.081       .  S
N149        N150   1.321       .  A
N149        C153   1.346       .  A
N149       Cu157   2.082       .  S
N150        C151   1.345       .  A
N150       Cu156   2.072       .  S
C151        C152   1.388       .  A
C151        H154   1.080       .  S
C152        C749   1.492       .  S
C152        C153   1.390       .  A
C153        H155   1.082       .  S
Cu156       N159   2.072       .  S
Cu157       N167   2.081       .  S
Cu158       N160   2.069       .  S
Cu158       N166   2.070       .  S
N159        N160   1.321       .  A
N159        C163   1.344       .  A
N160        C161   1.345       .  A
C161        C162   1.386       .  A
C161        H164   1.081       .  S
C162        C761   1.482       .  S
C162        C163   1.386       .  A
C163        H165   1.082       .  S
N166        N167   1.322       .  A
N166        C170   1.343       .  A
N167        C168   1.346       .  A
C168        C169   1.389       .  A
C168        H171   1.081       .  S
C169        C800   1.487       .  S
C169        C170   1.386       .  A
C170        H172   1.082       .  S
N173        N174   1.321       .  A
N173        C177   1.343       .  A
N173       Cu181   2.070       .  S
N174        C175   1.343       .  A
N174       Cu180   2.067       .  S
C175        C176   1.386       .  A
C175        H178   1.082       .  S
C176        C725   1.483       .  S
C176        C177   1.387       .  A
C177        H179   1.081       .  S
Cu180       N183   2.067       .  S
Cu181       N191   2.070       .  S
Cu182       N184   2.062       .  S
Cu182       N190   2.062       .  S
N183        N184   1.320       .  A
N183        C187   1.343       .  A
N184        C185   1.343       .  A
C185        C186   1.384       .  A
C185        H188   1.081       .  S
C186        C944   1.479       .  S
C186        C187   1.385       .  A
C187        H189   1.082       .  S
N190        N191   1.321       .  A
N190        C194   1.342       .  A
N191        C192   1.344       .  A
C192        C193   1.386       .  A
C192        H195   1.082       .  S
C193        C740   1.480       .  S
C193        C194   1.385       .  A
C194        H196   1.081       .  S
N197        N198   1.321       .  A
N197        C201   1.344       .  A
N197       Cu205   2.075       .  S
N198        C199   1.344       .  A
N198       Cu204   2.068       .  S
C199        C200   1.387       .  A
C199        H202   1.081       .  S
C200        C824   1.486       .  S
C200        C201   1.388       .  A
C201        H203   1.082       .  S
Cu204       N207   2.067       .  S
Cu205       N215   2.074       .  S
Cu206       N208   2.062       .  S
Cu206       N214   2.062       .  S
N207        N208   1.320       .  A
N207        C211   1.343       .  A
N208        C209   1.342       .  A
C209        C210   1.386       .  A
C209        H212   1.080       .  S
C210        C713   1.483       .  S
C210        C211   1.387       .  A
C211        H213   1.081       .  S
N214        N215   1.320       .  A
N214        C218   1.343       .  A
N215        C216   1.343       .  A
C216        C217   1.388       .  A
C216        H219   1.081       .  S
C217        C737   1.485       .  S
C217        C218   1.387       .  A
C218        H220   1.081       .  S
N221        N222   1.321       .  A
N221        C225   1.345       .  A
N221       Cu229   2.080       .  S
N222        C223   1.343       .  A
N222       Cu228   2.060   1_455  S
C223        C224   1.385       .  A
C223        H226   1.081       .  S
C224        C680   1.482       .  S
C224        C225   1.388       .  A
C225        H227   1.082       .  S
Cu228       N231   2.060       .  S
Cu229       N239   2.080       .  S
Cu230       N232   2.071       .  S
Cu230       N238   2.072       .  S
N231        N232   1.321       .  A
N231        C235   1.342       .  A
N232        C233   1.344       .  A
C233        C234   1.386       .  A
C233        H236   1.082       .  S
C234        C692   1.480       .  S
C234        C235   1.384       .  A
C235        H237   1.081       .  S
N238        N239   1.322   1_655  A
N238        C242   1.345       .  A
N239        C240   1.345       .  A
C240        C241   1.387   1_455  A
C240        H243   1.082       .  S
C241        C701   1.485       .  S
C241        C242   1.386       .  A
C242        H244   1.081       .  S
N245        N246   1.323       .  A
N245        C249   1.345       .  A
N245       Cu253   2.078       .  S
N246        C247   1.343       .  A
N246       Cu252   2.074   1_655  S
C247        C248   1.385       .  A
C247        H250   1.081       .  S
C248        C665   1.484       .  S
C248        C249   1.387       .  A
C249        H251   1.082       .  S
Cu252       N255   2.074       .  S
Cu253       N263   2.078       .  S
Cu254       N256   2.074       .  S
Cu254       N262   2.074       .  S
N255        N256   1.318       .  A
N255        C259   1.345       .  A
N256        C257   1.344       .  A
C257        C258   1.394       .  A
C257        H260   1.078       .  S
C258        C653   1.502       .  S
C258        C259   1.395       .  A
C259        H261   1.080       .  S
N262        N263   1.322   1_455  A
N262        C266   1.343       .  A
N263        C264   1.347       .  A
C264        C265   1.388       .  A
C264        H267   1.082       .  S
C265        C704   1.485       .  S
C265        C266   1.386   1_655  A
C266        H268   1.081       .  S
N269        N270   1.321       .  A
N269        C273   1.342       .  A
N269       Cu277   2.067       .  S
N270        C271   1.345       .  A
N270       Cu276   2.070   1_545  S
C271        C272   1.389       .  A
C271        H274   1.080       .  S
C272        C632   1.485       .  S
C272        C273   1.386       .  A
C273        H275   1.082       .  S
Cu276       N279   2.070       .  S
Cu277       N287   2.067       .  S
Cu278       N280   2.055       .  S
Cu278       N286   2.056       .  S
N279        N280   1.322       .  A
N279        C283   1.343       .  A
N280        C281   1.342       .  A
C281        C282   1.380       .  A
C281        H284   1.082       .  S
C282        C932   1.471       .  S
C282        C283   1.384       .  A
C283        H285   1.081       .  S
N286        N287   1.320   1_565  A
N286        C290   1.341       .  A
N287        C288   1.344       .  A
C288        C289   1.385   1_545  A
C288        H291   1.082       .  S
C289        C641   1.476       .  S
C289        C290   1.383       .  A
C290        H292   1.082       .  S
N293        N294   1.321       .  A
N293        C297   1.344       .  A
N293       Cu301   2.072       .  S
N294        C295   1.345       .  A
N294       Cu300   2.073       .  S
C295        C296   1.387       .  A
C295        H298   1.082       .  S
C296        C812   1.485       .  S
C296        C297   1.387       .  A
C297        H299   1.081       .  S
Cu300       N303   2.072   1_565  S
Cu301       N311   2.072       .  S
Cu302       N304   2.060       .  S
Cu302       N310   2.059       .  S
N303        N304   1.321       .  A
N303        C307   1.342       .  A
N304        C305   1.342       .  A
C305        C306   1.386       .  A
C305        H308   1.081       .  S
C306        C617   1.483       .  S
C306        C307   1.387       .  A
C307        H309   1.081       .  S
N310        N311   1.321   1_545  A
N310        C314   1.343       .  A
N311        C312   1.343       .  A
C312        C313   1.385       .  A
C312        H315   1.082       .  S
C313        C644   1.477       .  S
C313        C314   1.384   1_565  A
C314        H316   1.082       .  S
O317       Cu325   2.022       .  S
O317        C327   1.280       .  A
O318       Cu325   2.027       .  S
O318        C328   1.281       .  A
O319       Cu325   1.994       .  S
O319        C329   1.277       .  A
O320       Cu325   1.995       .  S
O320        C330   1.276       .  A
O321       Cu326   2.000       .  S
O321        C330   1.277       .  A
O322       Cu326   2.002       .  S
O322        C329   1.277       .  A
O323       Cu326   2.002       .  S
O323        C328   1.277       .  A
O324       Cu326   2.006       .  S
O324        C327   1.277       .  A
Cu325      Cu326   2.369       .  S
C327        C656   1.488       .  S
C328        C752   1.492       .  S
C329        C620   1.481       .  S
C330        C716   1.471       .  S
O331       Cu339   2.016       .  S
O331        C341   1.280       .  A
O332       Cu339   2.014       .  S
O332        C342   1.279       .  A
O333       Cu339   2.006       .  S
O333        C343   1.278       .  A
O334       Cu339   2.003       .  S
O334        C344   1.278       .  A
O335       Cu340   2.005       .  S
O335        C344   1.278       .  A
O336       Cu340   2.008       .  S
O336        C343   1.278       .  A
O337       Cu340   1.996       .  S
O337        C342   1.277       .  A
O338       Cu340   1.997       .  S
O338        C341   1.276       .  A
Cu339      Cu340   2.367       .  S
C341        C677   1.486       .  S
C342        C776   1.485       .  S
C343        C629   1.485       .  S
C344        C728   1.485       .  S
O345       Cu353   2.008       .  S
O345        C355   1.278       .  A
O346       Cu353   2.009       .  S
O346        C356   1.278       .  A
O347       Cu353   2.010       .  S
O347        C357   1.278       .  A
O348       Cu353   2.011       .  S
O348        C358   1.278       .  A
O349       Cu354   2.009       .  S
O349        C358   1.278       .  A
O350       Cu354   2.001       .  S
O350        C357   1.277       .  A
O351       Cu354   1.998       .  S
O351        C356   1.277       .  A
O352       Cu354   1.995       .  S
O352        C355   1.277       .  A
Cu353      Cu354   2.367       .  S
C355        C689   1.482       .  S
C356        C788   1.483       .  S
C357        C605   1.486       .  S
C358        C593   1.488       .  S
N359        N360   1.322       .  A
N359        C363   1.344       .  A
N359       Cu367   2.067       .  S
N360        C361   1.346       .  A
N360       Cu366   2.081       .  S
C361        C362   1.387       .  A
C361        H364   1.082       .  S
C362        C596   1.482       .  S
C362        C363   1.384       .  A
C363        H365   1.082       .  S
Cu366       N369   2.081       .  S
Cu367       N377   2.067       .  S
Cu368       N370   2.061       .  S
Cu368       N376   2.061       .  S
N369        N370   1.322       .  A
N369        C373   1.345       .  A
N370        C371   1.343       .  A
C371        C372   1.382       .  A
C371        H374   1.082       .  S
C372        C572   1.479       .  S
C372        C373   1.387       .  A
C373        H375   1.081       .  S
N376        N377   1.320       .  A
N376        C380   1.343       .  A
N377        C378   1.343       .  A
C378        C379   1.385       .  A
C378        H381   1.081       .  S
C379        C584   1.479       .  S
C379        C380   1.384       .  A
C380        H382   1.082       .  S
N383        N384   1.322       .  A
N383        C387   1.343       .  A
N383       Cu391   2.061       .  S
N384        C385   1.343       .  A
N384       Cu390   2.071       .  S
C385        C386   1.384       .  A
C385        H388   1.082       .  S
C386        C557   1.476       .  S
C386        C387   1.383       .  A
C387        H389   1.082       .  S
Cu390       N393   2.071       .  S
Cu391       N401   2.060       .  S
Cu392       N394   2.068       .  S
Cu392       N400   2.067       .  S
N393        N394   1.320       .  A
N393        C397   1.345       .  A
N394        C395   1.343       .  A
C395        C396   1.387       .  A
C395        H398   1.081       .  S
C396        C545   1.487       .  S
C396        C397   1.388       .  A
C397        H399   1.081       .  S
N400        N401   1.321       .  A
N400        C404   1.343       .  A
N401        C402   1.343       .  A
C402        C403   1.384       .  A
C402        H405   1.081       .  S
C403        C581   1.478       .  S
C403        C404   1.385       .  A
C404        H406   1.082       .  S
N407        N408   1.320       .  A
N407        C411   1.344       .  A
N407       Cu415   2.059       .  S
N408        C409   1.342       .  A
N408       Cu414   2.070       .  S
C409        C410   1.387       .  A
C409        H412   1.082       .  S
C410        C608   1.482       .  S
C410        C411   1.386       .  A
C411        H413   1.081       .  S
Cu414       N417   2.071   1_545  S
Cu415       N425   2.059       .  S
Cu416       N418   2.073       .  S
Cu416       N424   2.072       .  S
N417        N418   1.320       .  A
N417        C421   1.343       .  A
N418        C419   1.344       .  A
C419        C420   1.390       .  A
C419        H422   1.080       .  S
C420        C524   1.490       .  S
C420        C421   1.388       .  A
C421        H423   1.081       .  S
N424        N425   1.321   1_565  A
N424        C428   1.345       .  A
N425        C426   1.340       .  A
C426        C427   1.384       .  A
C426        H429   1.082       .  S
C427        C536   1.481       .  S
C427        C428   1.388   1_545  A
C428        H430   1.081       .  S
N431        N432   1.321       .  A
N431        C435   1.343       .  A
N431       Cu439   2.066       .  S
N432        C433   1.345       .  A
N432       Cu438   2.079       .  S
C433        C434   1.389       .  A
C433        H436   1.082       .  S
C434        C497   1.488       .  S
C434        C435   1.387       .  A
C435        H437   1.081       .  S
Cu438       N441   2.078   1_545  S
Cu439       N449   2.066       .  S
Cu440       N442   2.058       .  S
Cu440       N448   2.058       .  S
N441        N442   1.322       .  A
N441        C445   1.345       .  A
N442        C443   1.341       .  A
C443        C444   1.382       .  A
C443        H446   1.082       .  S
C444        C509   1.478       .  S
C444        C445   1.387       .  A
C445        H447   1.081       .  S
N448        N449   1.320   1_565  A
N448        C452   1.343       .  A
N449        C450   1.342       .  A
C450        C451   1.385       .  A
C450        H453   1.081       .  S
C451        C533   1.476       .  S
C451        C452   1.383   1_545  A
C452        H454   1.082       .  S
O455       Cu463   2.016       .  S
O455        C465   1.279       .  A
O456       Cu463   2.016       .  S
O456        C466   1.280       .  A
O457       Cu463   2.003       .  S
O457        C467   1.277       .  A
O458       Cu463   1.999       .  S
O458        C468   1.277       .  A
O459       Cu464   2.009       .  S
O459        C468   1.279       .  A
O460       Cu464   2.011       .  S
O460        C467   1.279       .  A
O461       Cu464   2.002       .  S
O461        C466   1.277       .  A
O462       Cu464   2.004       .  S
O462        C465   1.278       .  A
Cu463      Cu464   2.367       .  S
C465        C548   1.488       .  S
C466        C500   1.488       .  S
C467        C764   1.485       .  S
C468        C668   1.483       .  S
O469       Cu477   1.997       .  S
O469        C479   1.277       .  A
O470       Cu477   1.999       .  S
O470        C480   1.277       .  A
O471       Cu477   2.010       .  S
O471        C481   1.278       .  A
O472       Cu477   2.013       .  S
O472        C482   1.279       .  A
O473       Cu478   1.993       .  S
O473        C482   1.277       .  A
O474       Cu478   1.990       .  S
O474        C481   1.276       .  A
O475       Cu478   2.014       .  S
O475        C480   1.279       .  A
O476       Cu478   2.016       .  S
O476        C479   1.279       .  A
Cu477      Cu478   2.368       .  S
C479        C569   1.486       .  S
C480        C521   1.486       .  S
C481        C908   1.480       .  S
C482        C860   1.484       .  S
O483       Cu491   1.985       .  S
O483        C493   1.275       .  A
O484       Cu491   1.993       .  S
O484        C494   1.275       .  A
O485       Cu491   2.010       .  S
O485        C495   1.278       .  A
O486       Cu491   2.009       .  S
O486        C496   1.278       .  A
O487       Cu492   1.990       .  S
O487        C496   1.276       .  A
O488       Cu492   1.996       .  S
O488        C495   1.277       .  A
O489       Cu492   2.020       .  S
O489        C494   1.281       .  A
O490       Cu492   2.018       .  S
O490        C493   1.280       .  A
Cu491      Cu492   2.367       .  S
C493        C896   1.483       .  S
C494        C848   1.487       .  S
C495        C560   1.484       .  S
C496        C512   1.481       .  S
C497        C498   1.404       .  A
C497        C502   1.412       .  A
C498        C499   1.400       .  A
C498        H503   1.083       .  S
C499        C500   1.414       .  A
C499        O504   1.372       .  S
C500        C501   1.405       .  A
C501        C502   1.400       .  A
C501        H505   1.083       .  S
C502        O506   1.371       .  S
O504        H508   0.991       .  S
O506        H507   0.991       .  S
C509        C510   1.404       .  A
C509        C514   1.408       .  A
C510        C511   1.398       .  A
C510        H515   1.083       .  S
C511        C512   1.411       .  A
C511        O516   1.372       .  S
C512        C513   1.407       .  A
C513        C514   1.397       .  A
C513        H517   1.083       .  S
C514        O518   1.371       .  S
O516        H520   0.992       .  S
O518        H519   0.992       .  S
C521        C522   1.406       .  A
C521        C526   1.411       .  A
C522        C523   1.398       .  A
C522        H527   1.083       .  S
C523        C524   1.412       .  A
C523        O528   1.370       .  S
C524        C525   1.407       .  A
C525        C526   1.400       .  A
C525        H529   1.082       .  S
C526        O530   1.372       .  S
O528        H532   0.991       .  S
O530        H531   0.991       .  S
C533        C534   1.404   1_545  A
C533        C538   1.407       .  A
C534        C535   1.401       .  A
C534        H539   1.083       .  S
C535        C536   1.410   1_565  A
C535        O540   1.372       .  S
C536        C537   1.405       .  A
C537        C538   1.396       .  A
C537        H541   1.082       .  S
C538        O542   1.372       .  S
O540        H544   0.992       .  S
O542        H543   0.992       .  S
C545        C546   1.406       .  A
C545        C550   1.411       .  A
C546        C547   1.401       .  A
C546        H551   1.082       .  S
C547        C548   1.412       .  A
C547        O552   1.371       .  S
C548        C549   1.406       .  A
C549        C550   1.399       .  A
C549        H553   1.083       .  S
C550        O554   1.371       .  S
O552        H556   0.991       .  S
O554        H555   0.992       .  S
C557        C558   1.402       .  A
C557        C562   1.408       .  A
C558        C559   1.399       .  A
C558        H563   1.083       .  S
C559        C560   1.412       .  A
C559        O564   1.371       .  S
C560        C561   1.407       .  A
C561        C562   1.397       .  A
C561        H565   1.083       .  S
C562        O566   1.372       .  S
O564        H568   0.991       .  S
O566        H567   0.992       .  S
C569        C570   1.407       .  A
C569        C574   1.412       .  A
C570        C571   1.398       .  A
C570        H575   1.083       .  S
C571        C572   1.407       .  A
C571        O576   1.372       .  S
C572        C573   1.404       .  A
C573        C574   1.402       .  A
C573        H577   1.083       .  S
C574        O578   1.371       .  S
O576        H580   0.991       .  S
O578        H579   0.992       .  S
C581        C582   1.404       .  A
C581        C586   1.409       .  A
C582        C583   1.397   1_556  A
C582        H587   1.083       .  S
C583        C584   1.410       .  A
C583        O588   1.371       .  S
C584        C585   1.405       .  A
C585        C586   1.398   1_554  A
C585        H589   1.083       .  S
C586        O590   1.371       .  S
O588        H592   0.991       .  S
O590        H591   0.992       .  S
C593        C594   1.407       .  A
C593        C598   1.413       .  A
C594        C595   1.401       .  A
C594        H599   1.083       .  S
C595        C596   1.410       .  A
C595        O600   1.371       .  S
C596        C597   1.403       .  A
C597        C598   1.400       .  A
C597        H601   1.083       .  S
C598        O602   1.371       .  S
O600        H604   0.991       .  S
O602        H603   0.992       .  S
C605        C606   1.407       .  A
C605        C610   1.412       .  A
C606        C607   1.401       .  A
C606        H611   1.083       .  S
C607        C608   1.411       .  A
C607        O612   1.371       .  S
C608        C609   1.403       .  A
C609        C610   1.396       .  A
C609        H613   1.083       .  S
C610        O614   1.371       .  S
O612        H616   0.991       .  S
O614        H615   0.992       .  S
C617        C618   1.404       .  A
C617        C622   1.411       .  A
C618        C619   1.397       .  A
C618        H623   1.082       .  S
C619        C620   1.411       .  A
C619        O624   1.371       .  S
C620        C621   1.406       .  A
C621        C622   1.397       .  A
C621        H625   1.083       .  S
C622        O626   1.371       .  S
O624        H628   0.991       .  S
O626        H627   0.992       .  S
C629        C630   1.406       .  A
C629        C634   1.411       .  A
C630        C631   1.401       .  A
C630        H635   1.083       .  S
C631        C632   1.411       .  A
C631        O636   1.371       .  S
C632        C633   1.405       .  A
C633        C634   1.398       .  A
C633        H637   1.083       .  S
C634        O638   1.371       .  S
O636        H640   0.993       .  S
O638        H639   0.992       .  S
C641        C642   1.404   1_565  A
C641        C646   1.409       .  A
C642        C643   1.399       .  A
C642        H647   1.083       .  S
C643        C644   1.410   1_545  A
C643        O648   1.371       .  S
C644        C645   1.403       .  A
C645        C646   1.396       .  A
C645        H649   1.083       .  S
C646        O650   1.371       .  S
O648        H652   0.992       .  S
O650        H651   0.991       .  S
C653        C654   1.409       .  A
C653        C658   1.418       .  A
C654        C655   1.401       .  A
C654        H659   1.080       .  S
C655        C656   1.410       .  A
C655        O660   1.372       .  S
C656        C657   1.402       .  A
C657        C658   1.403       .  A
C657        H661   1.084       .  S
C658        O662   1.369       .  S
O660        H664   0.992       .  S
O662        H663   0.992       .  S
C665        C666   1.404       .  A
C665        C670   1.411       .  A
C666        C667   1.399       .  A
C666        H671   1.083       .  S
C667        C668   1.412       .  A
C667        O672   1.372       .  S
C668        C669   1.405       .  A
C669        C670   1.399       .  A
C669        H673   1.083       .  S
C670        O674   1.371       .  S
O672        H676   0.991       .  S
O674        H675   0.991       .  S
C677        C678   1.405       .  A
C677        C682   1.414       .  A
C678        C679   1.401       .  A
C678        H683   1.083       .  S
C679        C680   1.411       .  A
C679        O684   1.371       .  S
C680        C681   1.402       .  A
C681        C682   1.398       .  A
C681        H685   1.083       .  S
C682        O686   1.372       .  S
O684        H688   0.993       .  S
O686        H687   0.992       .  S
C689        C690   1.405       .  A
C689        C694   1.412       .  A
C690        C691   1.397       .  A
C690        H695   1.083       .  S
C691        C692   1.409       .  A
C691        O696   1.372       .  S
C692        C693   1.404       .  A
C693        C694   1.399       .  A
C693        H697   1.083       .  S
C694        O698   1.371       .  S
O696        H700   0.993       .  S
O698        H699   0.992       .  S
C701        C702   1.403   1_655  A
C701        C706   1.412       .  A
C702        C703   1.399       .  A
C702        H707   1.083       .  S
C703        C704   1.412   1_455  A
C703        O708   1.371       .  S
C704        C705   1.405       .  A
C705        C706   1.403       .  A
C705        H709   1.083       .  S
C706        O710   1.371       .  S
O708        H712   0.992       .  S
O710        H711   0.992       .  S
C713        C714   1.406       .  A
C713        C718   1.412       .  A
C714        C715   1.397       .  A
C714        H719   1.082       .  S
C715        C716   1.407       .  A
C715        O720   1.372       .  S
C716        C717   1.400       .  A
C717        C718   1.398       .  A
C717        H721   1.084       .  S
C718        O722   1.371       .  S
O720        H724   0.992       .  S
O722        H723   0.992       .  S
C725        C726   1.404       .  A
C725        C730   1.410       .  A
C726        C727   1.398       .  A
C726        H731   1.083       .  S
C727        C728   1.412       .  A
C727        O732   1.371       .  S
C728        C729   1.406       .  A
C729        C730   1.400       .  A
C729        H733   1.083       .  S
C730        O734   1.372       .  S
O732        H736   0.992       .  S
O734        H735   0.992       .  S
C737        C738   1.405       .  A
C737        C742   1.412       .  A
C738        C739   1.397   1_556  A
C738        H743   1.082       .  S
C739        C740   1.410       .  A
C739        O744   1.371       .  S
C740        C741   1.403       .  A
C741        C742   1.399   1_554  A
C741        H745   1.083       .  S
C742        O746   1.371       .  S
O744        H748   0.991       .  S
O746        H747   0.992       .  S
C749        C750   1.405       .  A
C749        C754   1.414       .  A
C750        C751   1.401       .  A
C750        H755   1.083       .  S
C751        C752   1.415       .  A
C751        O756   1.372       .  S
C752        C753   1.406       .  A
C753        C754   1.402       .  A
C753        H757   1.083       .  S
C754        O758   1.370       .  S
O756        H760   0.991       .  S
O758        H759   0.992       .  S
C761        C762   1.404       .  A
C761        C766   1.409       .  A
C762        C763   1.399       .  A
C762        H767   1.083       .  S
C763        C764   1.413       .  A
C763        O768   1.371       .  S
C764        C765   1.406       .  A
C765        C766   1.401       .  A
C765        H769   1.083       .  S
C766        O770   1.372       .  S
O768        H772   0.992       .  S
O770        H771   0.992       .  S
C773        C774   1.405       .  A
C773        C778   1.410       .  A
C774        C775   1.400       .  A
C774        H779   1.083       .  S
C775        C776   1.412       .  A
C775        O780   1.371       .  S
C776        C777   1.406       .  A
C777        C778   1.397       .  A
C777        H781   1.083       .  S
C778        O782   1.371       .  S
O780        H784   0.991       .  S
O782        H783   0.992       .  S
C785        C786   1.405       .  A
C785        C790   1.409       .  A
C786        C787   1.399       .  A
C786        H791   1.083       .  S
C787        C788   1.411       .  A
C787        O792   1.372       .  S
C788        C789   1.406       .  A
C789        C790   1.398       .  A
C789        H793   1.083       .  S
C790        O794   1.371       .  S
O792        H796   0.992       .  S
O794        H795   0.992       .  S
C797        C798   1.405       .  A
C797        C802   1.410       .  A
C798        C799   1.401   1_554  A
C798        H803   1.083       .  S
C799        C800   1.411       .  A
C799        O804   1.371       .  S
C800        C801   1.405       .  A
C801        C802   1.398   1_556  A
C801        H805   1.082       .  S
C802        O806   1.371       .  S
O804        H808   0.992       .  S
O806        H807   0.992       .  S
C809        C810   1.406       .  A
C809        C814   1.414       .  A
C810        C811   1.402       .  A
C810        H815   1.083       .  S
C811        C812   1.410       .  A
C811        O816   1.371       .  S
C812        C813   1.404       .  A
C813        C814   1.401       .  A
C813        H817   1.083       .  S
C814        O818   1.372       .  S
O816        H820   0.992       .  S
O818        H819   0.992       .  S
C821        C822   1.406       .  A
C821        C826   1.413       .  A
C822        C823   1.402       .  A
C822        H827   1.083       .  S
C823        C824   1.412       .  A
C823        O828   1.371       .  S
C824        C825   1.404       .  A
C825        C826   1.398       .  A
C825        H829   1.083       .  S
C826        O830   1.372       .  S
O828        H832   0.992       .  S
O830        H831   0.991       .  S
C833        C834   1.407       .  A
C833        C838   1.413       .  A
C834        C835   1.399       .  A
C834        H839   1.082       .  S
C835        C836   1.410       .  A
C835        O840   1.372       .  S
C836        C837   1.405       .  A
C837        C838   1.399       .  A
C837        H841   1.083       .  S
C838        O842   1.370       .  S
O840        H844   0.991       .  S
O842        H843   0.991       .  S
C845        C846   1.402       .  A
C845        C850   1.409       .  A
C846        C847   1.399       .  A
C846        H851   1.083       .  S
C847        C848   1.415       .  A
C847        O852   1.372       .  S
C848        C849   1.405       .  A
C849        C850   1.401       .  A
C849        H853   1.083       .  S
C850        O854   1.372       .  S
O852        H856   0.992       .  S
O854        H855   0.992       .  S
C857        C858   1.405       .  A
C857        C862   1.410       .  A
C858        C859   1.400       .  A
C858        H863   1.083       .  S
C859        C860   1.412       .  A
C859        O864   1.371       .  S
C860        C861   1.406       .  A
C861        C862   1.396       .  A
C861        H865   1.083       .  S
C862        O866   1.371       .  S
O864        H868   0.992       .  S
O866        H867   0.992       .  S
C869        C870   1.404   1_455  A
C869        C874   1.411       .  A
C870        C871   1.398       .  A
C870        H875   1.083       .  S
C871        C872   1.411   1_655  A
C871        O876   1.371       .  S
C872        C873   1.404       .  A
C873        C874   1.399       .  A
C873        H877   1.083       .  S
C874        O878   1.371       .  S
O876        H880   0.992       .  S
O878        H879   0.991       .  S
C881        C882   1.409       .  A
C881        C886   1.416       .  A
C882        C883   1.397       .  A
C882        H887   1.080       .  S
C883        C884   1.408       .  A
C883        O888   1.372       .  S
C884        C885   1.402       .  A
C885        C886   1.400       .  A
C885        H889   1.084       .  S
C886        O890   1.370       .  S
O888        H892   0.993       .  S
O890        H891   0.992       .  S
C893        C894   1.401       .  A
C893        C898   1.409       .  A
C894        C895   1.395       .  A
C894        H899   1.083       .  S
C895        C896   1.414       .  A
C895        O900   1.372       .  S
C896        C897   1.406       .  A
C897        C898   1.400       .  A
C897        H901   1.083       .  S
C898        O902   1.371       .  S
O900        H904   0.992       .  S
O902        H903   0.992       .  S
C905        C906   1.404       .  A
C905        C910   1.407       .  A
C906        C907   1.399       .  A
C906        H911   1.083       .  S
C907        C908   1.411       .  A
C907        O912   1.372       .  S
C908        C909   1.407       .  A
C909        C910   1.396       .  A
C909        H913   1.083       .  S
C910        O914   1.371       .  S
O912        H916   0.992       .  S
O914        H915   0.992       .  S
C917        C918   1.404       .  A
C917        C922   1.409       .  A
C918        C919   1.401   1_556  A
C918        H923   1.083       .  S
C919        C920   1.410       .  A
C919        O924   1.372       .  S
C920        C921   1.404       .  A
C921        C922   1.399   1_554  A
C921        H925   1.083       .  S
C922        O926   1.372       .  S
O924        H928   0.992       .  S
O926        H927   0.992       .  S
C929        C930   1.406       .  A
C929        C934   1.413       .  A
C930        C931   1.396       .  A
C930        H935   1.083       .  S
C931        C932   1.406       .  A
C931        O936   1.372       .  S
C932        C933   1.402       .  A
C933        C934   1.397       .  A
C933        H937   1.084       .  S
C934        O938   1.372       .  S
O936        H940   0.992       .  S
O938        H939   0.992       .  S
C941        C942   1.405       .  A
C941        C946   1.412       .  A
C942        C943   1.398       .  A
C942        H947   1.083       .  S
C943        C944   1.410       .  A
C943        O948   1.371       .  S
C944        C945   1.403       .  A
C945        C946   1.397       .  A
C945        H949   1.083       .  S
C946        O950   1.372       .  S
O948        H952   0.991       .  S
O950        H951   0.992       .  S
C953        C954   1.406       .  A
C953        C958   1.412       .  A
C954        C955   1.399       .  A
C954        H959   1.083       .  S
C955        C956   1.410       .  A
C955        O960   1.371       .  S
C956        C957   1.406       .  A
C957        C958   1.401       .  A
C957        H961   1.082       .  S
C958        O962   1.372       .  S
O960        H964   0.992       .  S
O962        H963   0.992       .  S
C965        C966   1.407       .  A
C965        C970   1.412       .  A
C966        C967   1.400       .  A
C966        H971   1.083       .  S
C967        C968   1.410       .  A
C967        O972   1.371       .  S
C968        C969   1.404       .  A
C969        C970   1.399       .  A
C969        H973   1.083       .  S
C970        O974   1.371       .  S
O972        H976   0.992       .  S
O974        H975   0.992       .  S
