geometry optimzed in LAMMPS
_audit_creation_date              2020-12-01 
_audit_creation_method            'lammps2cif' 
_symmetry_space_group_name_H-M    'P1' 
_symmetry_Int_Tables_number       1 
_symmetry_cell_setting            triclinic 
loop_ 
_symmetry_equiv_pos_as_xyz 
  x,y,z 
_cell_length_a                    39.85643543 
_cell_length_b                    39.96953947511357 
_cell_length_c                    39.97405105545297 
_cell_angle_alpha                 89.9649944775781 
_cell_angle_beta                  89.90482557311611 
_cell_angle_gamma                 90.13380019527868 
loop_ 
_atom_site_label 
_atom_site_type_symbol 
_atom_site_fract_x 
_atom_site_fract_y 
_atom_site_fract_z 
_atom_site_charge 
O1          O  0.03234614  0.21624427  0.53736843    -0.71200
O2          O  0.96215318  0.21536463  0.46570569    -0.72200
O3          O  0.03346616  0.21509320  0.46623003    -0.60800
O4          O  0.96125720  0.21690426  0.53647413    -0.69200
O5          O  0.96195273  0.27232272  0.53509931    -0.68800
O6          O  0.03408712  0.27043048  0.46583242    -0.60000
O7          O  0.96320856  0.27081287  0.46418652    -0.72500
O8          O  0.03281257  0.27159975  0.53674042    -0.71300
Cu9        Cu  0.99731732  0.21395669  0.50147256     1.04600
Cu10       Cu  0.99804269  0.27318933  0.50041852     1.04300
C11         C  0.04355213  0.24397171  0.54871299     0.95000
C12         C  0.95159424  0.24294957  0.45354690     0.94100
C13         C  0.04523526  0.24262236  0.45481106     0.86300
C14         C  0.95017955  0.24502207  0.54689258     0.92600
C15         C  0.27333705  0.22237039  0.24990106     0.04000
C16         C  0.24931104  0.22261838  0.27584985     0.04000
C17         C  0.22388314  0.24714936  0.27630632     0.04000
C18         C  0.22260972  0.27171872  0.25102458     0.04000
C19         C  0.24694184  0.27184788  0.22534623     0.04000
C20         C  0.27211873  0.24704340  0.22463755     0.04000
C21         C  0.76971397  0.25568460  0.72252269     0.04000
C22         C  0.77053799  0.28172562  0.74641594     0.04000
C23         C  0.74534951  0.28366224  0.77127166     0.04000
C24         C  0.71894421  0.26002759  0.77148665     0.04000
C25         C  0.71804254  0.23429136  0.74736358     0.04000
C26         C  0.74356923  0.23189007  0.72309480     0.04000
O27         O  0.53980241  0.96574469  0.26979669    -0.71200
O28         O  0.46509371  0.03267778  0.27287924    -0.72200
O29         O  0.46898694  0.96167152  0.27195082    -0.60800
O30         O  0.53596786  0.03616773  0.27077991    -0.69200
O31         O  0.53453403  0.03689066  0.21538386    -0.68800
O32         O  0.46770191  0.96197575  0.21659515    -0.60000
O33         O  0.46361332  0.03306135  0.21757341    -0.72500
O34         O  0.53868093  0.96616794  0.21444139    -0.71300
Cu35       Cu  0.50247059  0.99902332  0.27325244     1.04600
Cu36       Cu  0.50101675  0.99953924  0.21406474     1.04300
C37         C  0.55128435  0.95544212  0.24179455     0.95000
C38         C  0.45266741  0.04386264  0.24563769     0.94100
C39         C  0.45782402  0.94977884  0.24448517     0.86300
C40         C  0.54605986  0.04823565  0.24293839     0.92600
C41         C  0.72745756  0.77608890  0.25087497     0.04000
C42         C  0.72854014  0.75040324  0.22680289     0.04000
C43         C  0.75380326  0.72585420  0.22834234     0.04000
C44         C  0.77820513  0.72715066  0.25381642     0.04000
C45         C  0.77707218  0.75289773  0.27791250     0.04000
C46         C  0.75134297  0.77702958  0.27676206     0.04000
O47         O  0.96652451  0.72754687  0.46550237    -0.71200
O48         O  0.03815307  0.72420384  0.53531513    -0.72200
O49         O  0.96717951  0.72656755  0.53636932    -0.60800
O50         O  0.03741690  0.72560454  0.46433967    -0.69200
O51         O  0.03868611  0.78095418  0.46495859    -0.68800
O52         O  0.96927104  0.78188388  0.53757239    -0.60000
O53         O  0.04057219  0.77960531  0.53584804    -0.72500
O54         O  0.96762515  0.78294697  0.46662789    -0.71300
Cu55       Cu  0.00225445  0.72407834  0.50035398     1.04600
Cu56       Cu  0.00410169  0.78328383  0.50128808     1.04300
C57         C  0.95567196  0.75565570  0.45494041     0.95000
C58         C  0.05081183  0.75129216  0.54663291     0.94100
C59         C  0.95708907  0.75436813  0.54850651     0.86300
C60         C  0.04913342  0.75319813  0.45307866     0.92600
C61         C  0.23307299  0.71921971  0.74711580     0.04000
C62         C  0.23290715  0.74352563  0.72143029     0.04000
C63         C  0.25828094  0.76826738  0.72036148     0.04000
C64         C  0.28388405  0.76838798  0.74483463     0.04000
C65         C  0.28431482  0.74372234  0.77024333     0.04000
C66         C  0.25860283  0.71939784  0.77164118     0.04000
O67         O  0.53867914  0.96734751  0.77981312    -0.71200
O68         O  0.46477748  0.03499199  0.78062038    -0.72200
O69         O  0.46752274  0.96384970  0.78019035    -0.60800
O70         O  0.53554497  0.03842257  0.77970765    -0.69200
O71         O  0.53499838  0.03814296  0.72429879    -0.68800
O72         O  0.46757786  0.96449968  0.72479255    -0.60000
O73         O  0.46432563  0.03509759  0.72518207    -0.72500
O74         O  0.53843213  0.96743168  0.72446230    -0.71300
Cu75       Cu  0.50165279  0.00110118  0.78205850     1.04600
Cu76       Cu  0.50132578  0.00125561  0.72281280     1.04300
C77         C  0.55036698  0.95659799  0.75206130     0.95000
C78         C  0.45303917  0.04602628  0.75303901     0.94100
C79         C  0.45668342  0.95246525  0.75231705     0.86300
C80         C  0.54579541  0.05027869  0.75177171     0.92600
O81         O  0.27052720  0.53246264  0.96492242    -0.71200
O82         O  0.26930294  0.46327130  0.03728080    -0.72200
O83         O  0.26958837  0.46152659  0.96644532    -0.60800
O84         O  0.27040857  0.53381996  0.03552641    -0.69200
O85         O  0.21484150  0.53453268  0.03573674    -0.68800
O86         O  0.21405123  0.46214029  0.96577936    -0.60000
O87         O  0.21379898  0.46353436  0.03718079    -0.72500
O88         O  0.21498418  0.53350224  0.96440895    -0.71300
Cu89       Cu  0.27180227  0.49771981  0.00100360     1.04600
Cu90       Cu  0.21242336  0.49842714  0.00074444     1.04300
C91         C  0.24314161  0.54427611  0.95334889     0.95000
C92         C  0.24146032  0.45253672  0.04900786     0.94100
C93         C  0.24184237  0.45028424  0.95506953     0.86300
C94         C  0.24285478  0.54559661  0.04673762     0.92600
O95         O  0.72097531  0.53703806  0.03913317    -0.71200
O96         O  0.72086218  0.46668982  0.96731307    -0.72200
O97         O  0.72238021  0.46602941  0.03828831    -0.60800
O98         O  0.71951717  0.53812903  0.96786488    -0.69200
O99         O  0.77500293  0.53894326  0.96708026    -0.68800
O100        O  0.77790747  0.46717359  0.03676015    -0.60000
O101        O  0.77641616  0.46810994  0.96602611    -0.72500
O102        O  0.77651691  0.53763238  0.03782186    -0.71300
Cu103      Cu  0.71894022  0.50195081  0.00316644     1.04600
Cu104      Cu  0.77831181  0.50303377  0.00185484     1.04300
C105        C  0.74893350  0.54821520  0.05012104     0.95000
C106        C  0.74868002  0.45615056  0.95538145     0.94100
C107        C  0.75067421  0.45518628  0.04867127     0.86300
C108        C  0.74700350  0.55006349  0.95631238     0.92600
C109        C  0.78267292  0.75598660  0.73157781     0.04000
C110        C  0.78132759  0.73125265  0.75686303     0.04000
C111        C  0.75527776  0.73184659  0.78087498     0.04000
C112        C  0.73095181  0.75738720  0.77976500     0.04000
C113        C  0.73251502  0.78221297  0.75480581     0.04000
C114        C  0.75812432  0.78135271  0.73051466     0.04000
O115        O  0.71570335  0.96643608  0.53776204    -0.71200
O116        O  0.71484339  0.03759185  0.46583023    -0.72200
O117        O  0.71495575  0.96636505  0.46650920    -0.60800
O118        O  0.71488051  0.03771053  0.53715487    -0.69200
O119        O  0.77036439  0.03846497  0.53683417    -0.68800
O120        O  0.77043902  0.96704917  0.46619884    -0.60000
O121        O  0.77036326  0.03772545  0.46597367    -0.72500
O122        O  0.77116565  0.96773336  0.53684552    -0.71300
Cu123      Cu  0.71310688  0.00203645  0.50183687     1.04600
Cu124      Cu  0.77242423  0.00277604  0.50145763     1.04300
C125        C  0.74390856  0.95577826  0.54865586     0.95000
C126        C  0.74271679  0.04871662  0.45433926     0.94100
C127        C  0.74275327  0.95528619  0.45511226     0.86300
C128        C  0.74253409  0.04942556  0.54832909     0.92600
C129        C  0.72937570  0.22065932  0.24276159     0.04000
C130        C  0.75375740  0.21932695  0.26830947     0.04000
C131        C  0.78008864  0.24304032  0.26889397     0.04000
C132        C  0.78165576  0.26818192  0.24407779     0.04000
C133        C  0.75706683  0.26952493  0.21873018     0.04000
C134        C  0.73097404  0.24574611  0.21802124     0.04000
O135        O  0.03607399  0.46421427  0.21607358    -0.71200
O136        O  0.96475559  0.53571246  0.21801857    -0.72200
O137        O  0.03611700  0.53555008  0.21787560    -0.60800
O138        O  0.96460853  0.46464770  0.21590677    -0.69200
O139        O  0.96447030  0.46380551  0.27126732    -0.68800
O140        O  0.03633460  0.53375012  0.27318364    -0.60000
O141        O  0.96544824  0.53425813  0.27332061    -0.72500
O142        O  0.03511073  0.46274042  0.27149932    -0.71300
Cu143      Cu  0.00043283  0.50010695  0.21497470     1.04600
Cu144      Cu  0.00038410  0.49861468  0.27415578     1.04300
C145        C  0.04648857  0.45186367  0.24369772     0.95000
C146        C  0.95368178  0.54620996  0.24616165     0.94100
C147        C  0.04746876  0.54610177  0.24581190     0.86300
C148        C  0.95319287  0.45293308  0.24348053     0.92600
C149        C  0.27684365  0.77400269  0.24703701     0.04000
C150        C  0.27584383  0.74848225  0.22270011     0.04000
C151        C  0.24966641  0.72478860  0.22302238     0.04000
C152        C  0.22487280  0.72602782  0.24810423     0.04000
C153        C  0.22605564  0.75123770  0.27272967     0.04000
C154        C  0.25187051  0.77550724  0.27209488     0.04000
O155        O  0.27491797  0.03126529  0.53801618    -0.71200
O156        O  0.27506514  0.96422573  0.46376843    -0.72200
O157        O  0.27532723  0.03489682  0.46723341    -0.60800
O158        O  0.27463035  0.96086050  0.53445135    -0.69200
O159        O  0.21899028  0.95955162  0.53341078    -0.68800
O160        O  0.21978477  0.03553938  0.46723379    -0.60000
O161        O  0.21953643  0.96444881  0.46246780    -0.72500
O162        O  0.21941661  0.03068877  0.53840415    -0.71300
Cu163      Cu  0.27683671  0.99781911  0.50083527     1.04600
Cu164      Cu  0.21743119  0.99760118  0.50035768     1.04300
C165        C  0.24718805  0.04146921  0.55031847     0.95000
C166        C  0.24754877  0.95353119  0.45135444     0.94100
C167        C  0.24776556  0.04703387  0.45648259     0.86300
C168        C  0.24686184  0.94850504  0.54463415     0.92600
C169        C  0.27216678  0.22137187  0.75291154     0.04000
C170        C  0.24637318  0.21948937  0.72882945     0.04000
C171        C  0.22087779  0.24396035  0.72840599     0.04000
C172        C  0.22090315  0.26996280  0.75231404     0.04000
C173        C  0.24638028  0.27151120  0.77672727     0.04000
C174        C  0.27221892  0.24743021  0.77673515     0.04000
O175        O  0.03783962  0.53507586  0.78568877    -0.71200
O176        O  0.96496331  0.46495714  0.78190197    -0.72200
O177        O  0.03651034  0.46376641  0.78334011    -0.60800
O178        O  0.96643759  0.53595558  0.78495999    -0.69200
O179        O  0.96734148  0.53789158  0.72967418    -0.68800
O180        O  0.03688455  0.46547644  0.72797278    -0.60000
O181        O  0.96608570  0.46748210  0.72662381    -0.72500
O182        O  0.03805892  0.53615767  0.73037320    -0.71300
Cu183      Cu  0.00143830  0.49984043  0.78598088     1.04600
Cu184      Cu  0.00217824  0.50182283  0.72684465     1.04300
C185        C  0.04938547  0.54684942  0.75820619     0.95000
C186        C  0.95376372  0.45536623  0.75347359     0.94100
C187        C  0.04767834  0.45300837  0.75535989     0.86300
C188        C  0.95566679  0.54837606  0.75755040     0.92600
O189        O  0.46297988  0.22378470  0.03551848    -0.71200
O190        O  0.53327033  0.22741256  0.96377313    -0.72200
O191        O  0.53425292  0.22486556  0.03466744    -0.60800
O192        O  0.46259417  0.22621688  0.96474837    -0.69200
O193        O  0.46185906  0.28156691  0.96592462    -0.68800
O194        O  0.53325654  0.28015769  0.03666974    -0.60000
O195        O  0.53261580  0.28271651  0.96569751    -0.72500
O196        O  0.46176231  0.27921691  0.03664163    -0.71300
Cu197      Cu  0.49830633  0.22365789  0.99969036     1.04600
Cu198      Cu  0.49737131  0.28283728  0.00140436     1.04300
C199        C  0.45085388  0.25099791  0.04707198     0.95000
C200        C  0.54382558  0.25564382  0.95298914     0.94100
C201        C  0.54541971  0.25231970  0.04666967     0.86300
C202        C  0.45106364  0.25396422  0.95391303     0.92600
O203        O  0.46924884  0.71736977  0.03595732    -0.71200
O204        O  0.54069379  0.72334730  0.96581919    -0.72200
O205        O  0.54024162  0.72129866  0.03668490    -0.60800
O206        O  0.47010620  0.71982011  0.96483012    -0.69200
O207        O  0.46733749  0.77504786  0.96677300    -0.68800
O208        O  0.53807425  0.77657903  0.03802710    -0.60000
O209        O  0.53802163  0.77865102  0.96701244    -0.72500
O210        O  0.46717348  0.77273044  0.03804045    -0.71300
Cu211      Cu  0.50515287  0.71855536  0.00082872     1.04600
Cu212      Cu  0.50251374  0.77767638  0.00258258     1.04300
C213        C  0.45704732  0.74415525  0.04834467     0.95000
C214        C  0.55039502  0.75179986  0.95488977     0.94100
C215        C  0.55048118  0.74913465  0.04868316     0.86300
C216        C  0.45795709  0.74729684  0.95391781     0.92600
C217        C  0.38558472  0.22356081  0.89221232     0.14400
C218        C  0.37652608  0.25335618  0.87611449     0.01400
C219        C  0.39219443  0.28345056  0.88523844     0.16400
C220        C  0.41636950  0.28381762  0.91056365     0.25800
C221        C  0.42530734  0.25394135  0.92715564    -0.40600
C222        C  0.40960478  0.22378200  0.91752491     0.32800
C223        C  0.34982371  0.25289430  0.85064670     0.01400
F224        F  0.38354767  0.31259940  0.87008875    -0.12900
F225        F  0.41705991  0.19437460  0.93278590    -0.13400
C226        C  0.31744543  0.24204450  0.85945818     0.16400
C227        C  0.29233481  0.24004029  0.83531586     0.25800
C228        C  0.29913829  0.24925298  0.80214150    -0.40500
C229        C  0.33137215  0.26049711  0.79330363     0.32700
C230        C  0.35664875  0.26223592  0.81743279     0.14400
F231        F  0.31018253  0.23353846  0.89155741    -0.12900
F232        F  0.33821645  0.26991752  0.76137848    -0.13400
F233        F  0.26140057  0.22884535  0.84419170    -0.15700
F234        F  0.38789154  0.27237856  0.80831295    -0.14200
F235        F  0.37114631  0.19408985  0.88325292    -0.14200
F236        F  0.43099672  0.31343593  0.91864626    -0.15600
C237        C  0.10111135  0.38059959  0.72466088     0.14400
C238        C  0.12100205  0.37401178  0.75274189     0.01400
C239        C  0.11691432  0.39323823  0.78177356     0.16400
C240        C  0.09313483  0.41894160  0.78276106     0.25800
C241        C  0.07303775  0.42582920  0.75455362    -0.40600
C242        C  0.07731960  0.40625273  0.72549029     0.32800
C243        C  0.14616426  0.34708100  0.75173482     0.01400
F244        F  0.13620998  0.38721415  0.80907549    -0.12900
F245        F  0.05801521  0.41138907  0.69802212    -0.13400
C246        C  0.17807632  0.35317602  0.73812154     0.16400
C247        C  0.20229066  0.32793708  0.73806111     0.25800
C248        C  0.19471754  0.29626363  0.75132033    -0.40500
C249        C  0.16255891  0.28996995  0.76430758     0.32700
C250        C  0.13845030  0.31532483  0.76467012     0.14400
F251        F  0.18579727  0.38367768  0.72524504    -0.12900
F252        F  0.15479930  0.25948378  0.77717719    -0.13400
F253        F  0.23317415  0.33432221  0.72514593    -0.15700
F254        F  0.10761803  0.30902191  0.77773898    -0.14200
F255        F  0.10458138  0.36191940  0.69651023    -0.14200
F256        F  0.09028903  0.43740292  0.81112123    -0.15600
C257        C  0.21773220  0.10444452  0.61540679     0.14400
C258        C  0.24811050  0.11404177  0.63022514     0.01400
C259        C  0.27809886  0.09919991  0.61954839     0.16400
C260        C  0.27781367  0.07527653  0.59400496     0.25800
C261        C  0.24739105  0.06597265  0.57837535    -0.40600
C262        C  0.21728907  0.08071046  0.58970608     0.32800
C263        C  0.24849811  0.14058196  0.65589144     0.01400
F264        F  0.30770100  0.10789902  0.63394395    -0.12900
F265        F  0.18736334  0.07274408  0.57560069    -0.13400
C266        C  0.23547702  0.13451768  0.68800537     0.16400
C267        C  0.23474482  0.16018889  0.71180122     0.25800
C268        C  0.24662860  0.19227760  0.70355909    -0.40500
C269        C  0.25966922  0.19827329  0.67146627     0.32700
C270        C  0.26084365  0.17252235  0.64786391     0.14400
F271        F  0.22371433  0.10368946  0.69626822    -0.12900
F272        F  0.27146098  0.22905288  0.66313411    -0.13400
F273        F  0.22233372  0.15385415  0.74281401    -0.15700
F274        F  0.27352773  0.17883377  0.61695109    -0.14200
F275        F  0.18851545  0.11881706  0.62528512    -0.14200
F276        F  0.30742410  0.06132183  0.58470332    -0.15600
C277        C  0.38473236  0.71283297  0.10187989     0.14400
C278        C  0.38044871  0.73978335  0.12388987     0.01400
C279        C  0.40188977  0.76751453  0.12184922     0.16400
C280        C  0.42702001  0.76877281  0.09753747     0.25800
C281        C  0.43110217  0.74217447  0.07479284    -0.40600
C282        C  0.40996359  0.71393288  0.07749854     0.32800
C283        C  0.35289983  0.73997408  0.14837618     0.01400
F284        F  0.39829169  0.79347941  0.14344714    -0.12900
F285        F  0.41297181  0.68786993  0.05593283    -0.13400
C286        C  0.35678141  0.72439844  0.17957862     0.16400
C287        C  0.33184744  0.72759755  0.20398289     0.25800
C288        C  0.30263930  0.74593234  0.19715006    -0.40500
C289        C  0.29846375  0.76085386  0.16566460     0.32700
C290        C  0.32359472  0.75807518  0.14146574     0.14400
F291        F  0.38496290  0.70671091  0.18652614    -0.12900
F292        F  0.27018028  0.77828062  0.15853412    -0.13400
F293        F  0.33616110  0.71296118  0.23431671    -0.15700
F294        F  0.31958858  0.77327834  0.11135817    -0.14200
F295        F  0.36402798  0.68585328  0.10357293    -0.14200
F296        F  0.44761099  0.79586640  0.09659366    -0.15600
C297        C  0.22106553  0.89747796  0.37906828     0.14400
C298        C  0.25046396  0.87889667  0.37342603     0.01400
C299        C  0.27882862  0.88522809  0.39325613     0.16400
C300        C  0.27778719  0.90933570  0.41851009     0.25800
C301        C  0.24840414  0.92808164  0.42428837    -0.40600
C302        C  0.22004735  0.92191475  0.40414074     0.32800
C303        C  0.25148470  0.85260287  0.34724502     0.01400
F304        F  0.30781024  0.86821535  0.38798041    -0.12900
F305        F  0.19133384  0.93962808  0.40843796    -0.13400
C306        C  0.24293370  0.86014749  0.31395356     0.16400
C307        C  0.24299478  0.83507352  0.28957030     0.25800
C308        C  0.25270379  0.80234914  0.29779998    -0.40500
C309        C  0.26220677  0.79497929  0.33078055     0.32700
C310        C  0.26102879  0.81972157  0.35543859     0.14400
F311        F  0.23481158  0.89187874  0.30499201    -0.12900
F312        F  0.27247850  0.76373201  0.33911619    -0.13400
F313        F  0.23307070  0.84260443  0.25801092    -0.15700
F314        F  0.26855598  0.81139159  0.38749228    -0.14200
F315        F  0.19304765  0.89149714  0.36071066    -0.14200
F316        F  0.30552571  0.91378515  0.43768773    -0.15600
C317        C  0.10749407  0.61289212  0.27788053     0.14400
C318        C  0.12160202  0.62484023  0.24800627     0.01400
C319        C  0.11156018  0.61089965  0.21744899     0.16400
C320        C  0.08773542  0.58518644  0.21665270     0.25800
C321        C  0.07331178  0.57300654  0.24660901    -0.40600
C322        C  0.08356706  0.58727397  0.27725341     0.32800
C323        C  0.14758171  0.65118583  0.24877418     0.01400
F324        F  0.12540467  0.62178636  0.18832831    -0.12900
F325        F  0.07037064  0.57673524  0.30678986    -0.13400
C326        C  0.17886933  0.64463822  0.26344846     0.16400
C327        C  0.20389997  0.66911846  0.26341390     0.25800
C328        C  0.19791836  0.70046241  0.24880969    -0.40500
C329        C  0.16658071  0.70719539  0.23437469     0.32700
C330        C  0.14151859  0.68265403  0.23431435     0.14400
F331        F  0.18535906  0.61424708  0.27714592    -0.12900
F332        F  0.16047984  0.73738907  0.22008586    -0.13400
F333        F  0.23407846  0.66222828  0.27745712    -0.15700
F334        F  0.11128523  0.68957932  0.22036219    -0.14200
F335        F  0.11667051  0.62637071  0.30767937    -0.14200
F336        F  0.07914374  0.57212355  0.18651912    -0.15600
C337        C  0.61097493  0.22084599  0.10825098     0.14400
C338        C  0.62597997  0.25082448  0.11874010     0.01400
C339        C  0.61437692  0.28130120  0.10581095     0.16400
C340        C  0.58811997  0.28187981  0.08264185     0.25800
C341        C  0.57286324  0.25183237  0.07190271    -0.40600
C342        C  0.58466591  0.22126123  0.08513549     0.32800
C343        C  0.65328719  0.25031314  0.14372950     0.01400
F344        F  0.62888947  0.31056072  0.11529468    -0.12900
F345        F  0.57070435  0.19162739  0.07601300    -0.13400
C346        C  0.68404181  0.23479610  0.13635817     0.16400
C347        C  0.70956165  0.23383846  0.16032591     0.25800
C348        C  0.70442426  0.24788307  0.19208830    -0.40500
C349        C  0.67376151  0.26348460  0.19942651     0.32700
C350        C  0.64844866  0.26491670  0.17532483     0.14400
F351        F  0.68936466  0.22080422  0.10587403    -0.12900
F352        F  0.66832837  0.27714525  0.23002822    -0.13400
F353        F  0.73914572  0.21886427  0.15275939    -0.15700
F354        F  0.61888659  0.27988552  0.18303317    -0.14200
F355        F  0.62145651  0.19111906  0.12091219    -0.14200
F356        F  0.57799362  0.31195130  0.07055999    -0.15600
C357        C  0.86384590  0.31421581  0.23154152     0.14400
C358        C  0.85546148  0.34618245  0.24342485     0.01400
C359        C  0.82348069  0.35199532  0.25678132     0.16400
C360        C  0.79985252  0.32626890  0.25779947     0.25800
C361        C  0.80788720  0.29443036  0.24539338    -0.40600
C362        C  0.84011906  0.28837090  0.23256081     0.32800
C363        C  0.88031442  0.37339777  0.24306769     0.01400
F364        F  0.81513249  0.38272807  0.26855174    -0.12900
F365        F  0.84832856  0.25764960  0.22066317    -0.13400
C366        C  0.88683281  0.39131257  0.21358872     0.16400
C367        C  0.91008315  0.41760596  0.21366677     0.25800
C368        C  0.92727739  0.42620999  0.24327851    -0.40500
C369        C  0.91990033  0.40840082  0.27295618     0.32700
C370        C  0.89665146  0.38226991  0.27270532     0.14400
F371        F  0.87030614  0.38357973  0.18493535    -0.12900
F372        F  0.93541252  0.41584983  0.30222013    -0.13400
F373        F  0.91530278  0.43484480  0.18481583    -0.15700
F374        F  0.89018739  0.36534961  0.30149352    -0.14200
F375        F  0.89498159  0.30813281  0.21916157    -0.14200
F376        F  0.76900673  0.33242546  0.27076677    -0.15600
C377        C  0.73725666  0.17978661  0.35288494     0.14400
C378        C  0.74619809  0.14629138  0.34701032     0.01400
C379        C  0.75712241  0.13679528  0.31488944     0.16400
C380        C  0.75960175  0.16052464  0.28928655     0.25800
C381        C  0.75085156  0.19396706  0.29531480    -0.40600
C382        C  0.73932494  0.20336916  0.32714394     0.32800
C383        C  0.74506170  0.12149840  0.37457290     0.01400
F384        F  0.76523512  0.10448291  0.30830830    -0.12900
F385        F  0.73009096  0.23545540  0.33323535    -0.13400
C386        C  0.71518847  0.11557737  0.39238541     0.16400
C387        C  0.71434546  0.09221162  0.41849823     0.25800
C388        C  0.74338754  0.07410597  0.42715092    -0.40500
C389        C  0.77333892  0.08035616  0.40926223     0.32700
C390        C  0.77412762  0.10384817  0.38340423     0.14400
F391        F  0.68664332  0.13211486  0.38416417    -0.12900
F392        F  0.80200222  0.06351614  0.41640682    -0.13400
F393        F  0.68515399  0.08765986  0.43546421    -0.15700
F394        F  0.80356185  0.10972720  0.36723938    -0.14200
F395        F  0.72730883  0.18982373  0.38378116    -0.14200
F396        F  0.77091112  0.15099794  0.25870275    -0.15600
C397        C  0.64658515  0.74092219  0.81979831     0.14400
C398        C  0.65001937  0.75801743  0.85026614     0.01400
C399        C  0.67985097  0.77532525  0.85732097     0.16400
C400        C  0.70628618  0.77504755  0.83438630     0.25800
C401        C  0.70302056  0.75762001  0.80413079    -0.40600
C402        C  0.67296368  0.74083072  0.79676380     0.32800
C403        C  0.62340461  0.75623071  0.87571626     0.01400
F404        F  0.68358412  0.79171999  0.88682255    -0.12900
F405        F  0.66933907  0.72426744  0.76735398    -0.13400
C406        C  0.61819149  0.72637112  0.89333871     0.16400
C407        C  0.59468037  0.72496233  0.91920694     0.25800
C408        C  0.57572326  0.75349284  0.92774723    -0.40500
C409        C  0.58082548  0.78336383  0.90955440     0.32700
C410        C  0.60453711  0.78465576  0.88377614     0.14400
F411        F  0.63659598  0.69876745  0.88600700    -0.12900
F412        F  0.56270336  0.81127397  0.91636148    -0.13400
F413        F  0.59110935  0.69579252  0.93628554    -0.15700
F414        F  0.60902751  0.81360642  0.86652094    -0.14200
F415        F  0.61773133  0.72437075  0.81248010    -0.14200
F416        F  0.73516651  0.79149619  0.84175158    -0.15600
C417        C  0.89452405  0.61523827  0.72832394     0.14400
C418        C  0.88011947  0.62571951  0.75860412     0.01400
C419        C  0.89039242  0.61062741  0.78860134     0.16400
C420        C  0.91485317  0.58555025  0.78838267     0.25800
C421        C  0.92955297  0.57497325  0.75800275    -0.40600
C422        C  0.91889258  0.59014937  0.72794778     0.32800
C423        C  0.85451173  0.65252590  0.75877740     0.01400
F424        F  0.87629351  0.61982854  0.81814059    -0.12900
F425        F  0.93212723  0.58101907  0.69800697    -0.13400
C426        C  0.82464743  0.64873176  0.74046004     0.16400
C427        C  0.80087593  0.67437319  0.73988196     0.25800
C428        C  0.80658484  0.70411978  0.75760613    -0.40500
C429        C  0.83622412  0.70792909  0.77611547     0.32700
C430        C  0.86006983  0.68230375  0.77670098     0.14400
F431        F  0.81837394  0.62001025  0.72343953    -0.12900
F432        F  0.84208773  0.73655771  0.79341559    -0.13400
F433        F  0.77222825  0.67021530  0.72204543    -0.15700
F434        F  0.88893304  0.68682140  0.79413403    -0.14200
F435        F  0.88540700  0.62980896  0.69902578    -0.14200
F436        F  0.92386253  0.57159093  0.81800071    -0.15600
C437        C  0.71826318  0.89307807  0.61596431     0.14400
C438        C  0.74962412  0.88089833  0.62631045     0.01400
C439        C  0.77881617  0.89287544  0.61078610     0.16400
C440        C  0.77689007  0.91690835  0.58553611     0.25800
C441        C  0.74552466  0.92961999  0.57513418    -0.40600
C442        C  0.71616448  0.91716939  0.59057930     0.32800
C443        C  0.75212087  0.85534055  0.65296328     0.01400
F444        F  0.80933863  0.88079405  0.61972953    -0.12900
F445        F  0.68538362  0.92834613  0.58139983    -0.13400
C446        C  0.73693537  0.82387113  0.64880837     0.16400
C447        C  0.73982065  0.79949876  0.67367148     0.25800
C448        C  0.75787509  0.80623713  0.70301946    -0.40500
C449        C  0.77330197  0.83753300  0.70717600     0.32700
C450        C  0.77045618  0.86196838  0.68229060     0.14400
F451        F  0.71960413  0.81665840  0.62049816    -0.12900
F452        F  0.79056439  0.84454336  0.73557600    -0.13400
F453        F  0.72451641  0.76944768  0.66940243    -0.15700
F454        F  0.78497135  0.89235654  0.68707280    -0.14200
F455        F  0.68966807  0.88201215  0.63086592    -0.14200
F456        F  0.80597520  0.92744589  0.57122942    -0.15600
C457        C  0.78371538  0.39624947  0.11545923     0.14400
C458        C  0.75554393  0.37611525  0.12165735     0.01400
C459        C  0.72556606  0.38232912  0.10441403     0.16400
C460        C  0.72377063  0.40823218  0.08100012     0.25800
C461        C  0.75208300  0.42840252  0.07434868    -0.40600
C462        C  0.78203107  0.42225450  0.09212517     0.32800
C463        C  0.75696964  0.34915356  0.14680642     0.01400
F464        F  0.69811775  0.36288511  0.10995574    -0.12900
F465        F  0.80958938  0.44175895  0.08748249    -0.13400
C466        C  0.73688901  0.35109675  0.17560237     0.16400
C467        C  0.73702412  0.32516003  0.19892539     0.25800
C468        C  0.75746828  0.29707233  0.19393631    -0.40500
C469        C  0.77796330  0.29522717  0.16541800     0.32700
C470        C  0.77769787  0.32116244  0.14189764     0.14400
F471        F  0.71733527  0.37830280  0.18118468    -0.12900
F472        F  0.79774265  0.26811330  0.16020293    -0.13400
F473        F  0.71725769  0.32745420  0.22649209    -0.15700
F474        F  0.79699046  0.31866303  0.11398946    -0.14200
F475        F  0.81267354  0.39112440  0.13254799    -0.14200
F476        F  0.69444586  0.41306046  0.06447355    -0.15600
C477        C  0.76600438  0.68502930  0.86260930     0.14400
C478        C  0.74779370  0.65549854  0.85642733     0.01400
C479        C  0.73173468  0.65134240  0.82542761     0.16400
C480        C  0.73432790  0.67612347  0.80079791     0.25800
C481        C  0.75292209  0.70537768  0.80686980    -0.40600
C482        C  0.76852466  0.70980469  0.83799610     0.32800
C483        C  0.74707716  0.62840959  0.88171937     0.01400
F484        F  0.71429397  0.62291269  0.81874359    -0.12900
F485        F  0.78619834  0.73812836  0.84447512    -0.13400
C486        C  0.71682442  0.61825920  0.89670872     0.16400
C487        C  0.71659481  0.59280886  0.92088025     0.25800
C488        C  0.74673137  0.57690491  0.93040084    -0.40500
C489        C  0.77694449  0.58716094  0.91493076     0.32700
C490        C  0.77702631  0.61258469  0.89093894     0.14400
F491        F  0.68757283  0.63347674  0.88839270    -0.12900
F492        F  0.80662642  0.57251147  0.92270683    -0.13400
F493        F  0.68689231  0.58416937  0.93518811    -0.15700
F494        F  0.80646971  0.62149278  0.87624078    -0.14200
F495        F  0.78120599  0.68985551  0.89259862    -0.14200
F496        F  0.71886300  0.67154857  0.77092389    -0.15600
C497        C  0.26788613  0.34937801  0.82666172     0.14400
C498        C  0.24437918  0.34752418  0.85289387     0.01400
C499        C  0.22163305  0.32062519  0.85392972     0.16400
C500        C  0.22232103  0.29602323  0.82912200     0.25800
C501        C  0.24560593  0.29802281  0.80279567    -0.40600
C502        C  0.26840284  0.32484644  0.80171098     0.32800
C503        C  0.24357588  0.37357141  0.87921638     0.01400
F504        F  0.19926166  0.31780919  0.87943119    -0.12900
F505        F  0.29097417  0.32733176  0.77636093    -0.13400
C506        C  0.21456412  0.39281198  0.88428934     0.16400
C507        C  0.21377303  0.41750607  0.90908939     0.25800
C508        C  0.24213246  0.42351565  0.92928226    -0.40500
C509        C  0.27109505  0.40389069  0.92423692     0.32700
C510        C  0.27175221  0.37920139  0.89947301     0.14400
F511        F  0.18717679  0.38814115  0.86467094    -0.12900
F512        F  0.29872593  0.40811474  0.94362011    -0.13400
F513        F  0.18546907  0.43599980  0.91270900    -0.15700
F514        F  0.29978528  0.36032386  0.89564695    -0.14200
F515        F  0.28996906  0.37524306  0.82496826    -0.14200
F516        F  0.20071835  0.26980017  0.83112919    -0.15600
C517        C  0.26565525  0.64406103  0.17656062     0.14400
C518        C  0.24630568  0.64873519  0.14764619     0.01400
C519        C  0.22810667  0.67846755  0.14344490     0.16400
C520        C  0.22918352  0.70327203  0.16803607     0.25800
C521        C  0.24835792  0.69845918  0.19704782    -0.40600
C522        C  0.26662202  0.66878639  0.20117725     0.32800
C523        C  0.24527430  0.62257430  0.12178872     0.01400
F524        F  0.20978274  0.68358044  0.11530733    -0.12900
F525        F  0.28530744  0.66381779  0.22907735    -0.13400
C526        C  0.21633463  0.60304646  0.11756504     0.16400
C527        C  0.21544736  0.57796330  0.09321256     0.25800
C528        C  0.24357442  0.57215332  0.07258364    -0.40500
C529        C  0.27263185  0.59186343  0.07713568     0.32700
C530        C  0.27341040  0.61681910  0.10156609     0.14400
F531        F  0.18918231  0.60789948  0.13753539    -0.12900
F532        F  0.30019173  0.58743455  0.05763469    -0.13400
F533        F  0.18737265  0.55886397  0.09047851    -0.15700
F534        F  0.30153214  0.63569865  0.10528768    -0.14200
F535        F  0.28329947  0.61539322  0.18101046    -0.14200
F536        F  0.21181429  0.73209205  0.16350073    -0.15600
C537        C  0.38019855  0.10043294  0.72593722     0.14400
C538        C  0.37662388  0.12174474  0.75359364     0.01400
C539        C  0.39813433  0.11813441  0.78110646     0.16400
C540        C  0.42286595  0.09340008  0.78105857     0.25800
C541        C  0.42652251  0.07187463  0.75336661    -0.40600
C542        C  0.40491435  0.07570175  0.72577952     0.32800
C543        C  0.35022538  0.14756760  0.75379170     0.01400
F544        F  0.39558183  0.13905211  0.80774872    -0.12900
F545        F  0.40717186  0.05506690  0.69890361    -0.13400
C546        C  0.32422200  0.14620374  0.77753012     0.16400
C547        C  0.29876600  0.17018027  0.77719012     0.25800
C548        C  0.29916678  0.19590991  0.75327529    -0.40500
C549        C  0.32536384  0.19751330  0.72980962     0.32700
C550        C  0.35067635  0.17341351  0.72997088     0.14400
F551        F  0.32317944  0.12123046  0.80055400    -0.12900
F552        F  0.32658783  0.22267517  0.70703299    -0.13400
F553        F  0.27351050  0.16814383  0.79992716    -0.15700
F554        F  0.37592343  0.17552879  0.70721414    -0.14200
F555        F  0.35927898  0.10321364  0.69930388    -0.14200
F556        F  0.44375600  0.09115309  0.80776683    -0.15600
C557        C  0.65287508  0.82865867  0.73322511     0.14400
C558        C  0.65680970  0.85830168  0.75170314     0.01400
C559        C  0.68601751  0.86308733  0.77080811     0.16400
C560        C  0.71078412  0.83840700  0.77164494     0.25800
C561        C  0.70656303  0.80866580  0.75350015    -0.40600
C562        C  0.67756023  0.80395693  0.73422569     0.32800
C563        C  0.63000262  0.88376556  0.75176151     0.01400
F564        F  0.69059357  0.89177736  0.78840959    -0.12900
F565        F  0.67303689  0.77524093  0.71670153    -0.13400
C566        C  0.61373802  0.89217337  0.78173512     0.16400
C567        C  0.58794450  0.91578613  0.78190516     0.25800
C568        C  0.57782929  0.93150080  0.75194045    -0.40500
C569        C  0.59429824  0.92286047  0.72187262     0.32700
C570        C  0.62012517  0.89925122  0.72186173     0.14400
F571        F  0.62236947  0.87688303  0.81081826    -0.12900
F572        F  0.58572553  0.93737133  0.69239325    -0.13400
F573        F  0.57262946  0.92275188  0.81144930    -0.15700
F574        F  0.63583638  0.89178479  0.69264000    -0.14200
F575        F  0.62471576  0.82330948  0.71490829    -0.14200
F576        F  0.73883644  0.84341280  0.79020695    -0.15600
C577        C  0.32813926  0.75636255  0.85337314     0.14400
C578        C  0.36103087  0.74621239  0.84591304     0.01400
C579        C  0.36876669  0.73529995  0.81337348     0.16400
C580        C  0.34384961  0.73444412  0.78871394     0.25800
C581        C  0.31089645  0.74436632  0.79633877    -0.40600
C582        C  0.30328991  0.75544643  0.82879205     0.32800
C583        C  0.38693425  0.74664354  0.87240409     0.01400
F584        F  0.40051199  0.72587867  0.80545631    -0.12900
F585        F  0.27179443  0.76571232  0.83654028    -0.13400
C586        C  0.40154386  0.71669845  0.88339696     0.16400
C587        C  0.42448653  0.71681175  0.90985934     0.25800
C588        C  0.43336266  0.74704383  0.92589997    -0.40500
C589        C  0.41896359  0.77713283  0.91427101     0.32700
C590        C  0.39601350  0.77684949  0.88783908     0.14400
F591        F  0.39293110  0.68714681  0.86899615    -0.12900
F592        F  0.42688183  0.80698794  0.92842879    -0.13400
F593        F  0.43785655  0.68718802  0.91968988    -0.15700
F594        F  0.38270340  0.80620441  0.87713124    -0.14200
F595        F  0.32000586  0.76669556  0.88469487    -0.14200
F596        F  0.35176256  0.72374839  0.75746201    -0.15600
C597        C  0.11394596  0.60925668  0.72670908     0.14400
C598        C  0.12727368  0.62155840  0.75659578     0.01400
C599        C  0.11474777  0.61004559  0.78730393     0.16400
C600        C  0.08931686  0.58583134  0.78811437     0.25800
C601        C  0.07599264  0.57293695  0.75803512    -0.40600
C602        C  0.08851071  0.58531255  0.72729617     0.32800
C603        C  0.15446399  0.64635879  0.75532950     0.01400
F604        F  0.12748286  0.62200322  0.81644044    -0.12900
F605        F  0.07630210  0.57436888  0.69755055    -0.13400
C606        C  0.14756016  0.68026883  0.76091533     0.16400
C607        C  0.17314479  0.70400113  0.75817207     0.25800
C608        C  0.20573344  0.69409191  0.74918565    -0.40500
C609        C  0.21251000  0.66012600  0.74331504     0.32700
C610        C  0.18703743  0.63634799  0.74662799     0.14400
F611        F  0.11595205  0.69034269  0.76852162    -0.12900
F612        F  0.24372882  0.65011413  0.73418504    -0.13400
F613        F  0.16628166  0.73659747  0.76466869    -0.15700
F614        F  0.19401703  0.60355150  0.74125604    -0.14200
F615        F  0.12554211  0.62067515  0.69682578    -0.14200
F616        F  0.07793124  0.57509230  0.81830082    -0.15600
C617        C  0.22532478  0.86963364  0.59303607     0.14400
C618        C  0.24950783  0.87058460  0.61856627     0.01400
C619        C  0.27251205  0.89716715  0.61968248     0.16400
C620        C  0.27161764  0.92235552  0.59550839     0.25800
C621        C  0.24732859  0.92168474  0.57002436    -0.40600
C622        C  0.22400549  0.89520621  0.56907346     0.32800
C623        C  0.25096312  0.84410315  0.64431830     0.01400
F624        F  0.29612589  0.89849927  0.64409547    -0.12900
F625        F  0.20055909  0.89363677  0.54450726    -0.13400
C626        C  0.26070966  0.81145369  0.63578023     0.16400
C627        C  0.26392237  0.78697189  0.66061337     0.25800
C628        C  0.25710002  0.79476952  0.69422500    -0.40500
C629        C  0.24706667  0.82737580  0.70264593     0.32700
C630        C  0.24412593  0.85187718  0.67789398     0.14400
F631        F  0.26771817  0.80353320  0.60349820    -0.12900
F632        F  0.23912678  0.83518296  0.73472361    -0.13400
F633        F  0.27371912  0.75564584  0.65194925    -0.15700
F634        F  0.23409851  0.88314193  0.68656255    -0.14200
F635        F  0.20286045  0.84412235  0.59154072    -0.14200
F636        F  0.29409084  0.94786346  0.59746966    -0.15600
C637        C  0.27602749  0.64295185  0.82514556     0.14400
C638        C  0.25099502  0.64568474  0.84986041     0.01400
C639        C  0.22931513  0.67335061  0.84938498     0.16400
C640        C  0.23248783  0.69775335  0.82449301     0.25800
C641        C  0.25726469  0.69481806  0.79961323    -0.40600
C642        C  0.27923118  0.66742238  0.80029153     0.32800
C643        C  0.24828839  0.62018314  0.87667199     0.01400
F644        F  0.20541335  0.67697671  0.87333630    -0.12900
F645        F  0.30308613  0.66389154  0.77628129    -0.13400
C646        C  0.27555066  0.61457585  0.89808259     0.16400
C647        C  0.27370733  0.59014925  0.92302271     0.25800
C648        C  0.24441353  0.57071475  0.92719967    -0.40500
C649        C  0.21678927  0.57682084  0.90605192     0.32700
C650        C  0.21877363  0.60130867  0.88097242     0.14400
F651        F  0.30392905  0.63322312  0.89513212    -0.12900
F652        F  0.18814827  0.55858709  0.90901430    -0.13400
F653        F  0.30053737  0.58603228  0.94348808    -0.15700
F654        F  0.19216322  0.60604275  0.86034186    -0.14200
F655        F  0.29686338  0.61612750  0.82468897    -0.14200
F656        F  0.21136260  0.72434481  0.82457641    -0.15600
C657        C  0.36030267  0.82066603  0.72333553     0.14400
C658        C  0.35835809  0.84601873  0.74766915     0.01400
C659        C  0.33150995  0.84605931  0.77046410     0.16400
C660        C  0.30719849  0.82094650  0.76923668     0.25800
C661        C  0.30929170  0.79549593  0.74515333    -0.40600
C662        C  0.33581345  0.79559620  0.72202899     0.32800
C663        C  0.38384046  0.87288811  0.74891318     0.01400
F664        F  0.32849952  0.87084026  0.79348452    -0.12900
F665        F  0.33819668  0.77113930  0.69859825    -0.13400
C666        C  0.38891809  0.89364130  0.72106178     0.16400
C667        C  0.41244877  0.91951216  0.72227060     0.25800
C668        C  0.43138053  0.92524953  0.75151846    -0.40500
C669        C  0.42602786  0.90449187  0.77954334     0.32700
C670        C  0.40254327  0.87846514  0.77816387     0.14400
F671        F  0.37044632  0.88934574  0.69285992    -0.12900
F672        F  0.44389678  0.90888518  0.80810198    -0.13400
F673        F  0.41607794  0.93937353  0.69492464    -0.15700
F674        F  0.39838890  0.85833427  0.80524854    -0.14200
F675        F  0.38622315  0.81991694  0.70126300    -0.14200
F676        F  0.28128905  0.82163768  0.79130045    -0.15600
C677        C  0.10723596  0.72333796  0.38380024     0.14400
C678        C  0.12436593  0.75292499  0.37545793     0.01400
C679        C  0.11659628  0.78262552  0.39245317     0.16400
C680        C  0.09205794  0.78280936  0.41745023     0.25800
C681        C  0.07493760  0.75309868  0.42620846    -0.40600
C682        C  0.08285511  0.72333268  0.40896752     0.32800
C683        C  0.15052599  0.75273687  0.34920318     0.01400
F684        F  0.13334024  0.81140018  0.38531702    -0.12900
F685        F  0.06680652  0.69417274  0.41605161    -0.13400
C686        C  0.14788421  0.77392913  0.32122143     0.16400
C687        C  0.17267790  0.77368313  0.29648010     0.25800
C688        C  0.20016330  0.75204582  0.29926063    -0.40500
C689        C  0.20279174  0.73076608  0.32704519     0.32700
C690        C  0.17828430  0.73128433  0.35200223     0.14400
F691        F  0.12095495  0.79433760  0.31756453    -0.12900
F692        F  0.22928860  0.70971837  0.33009116    -0.13400
F693        F  0.16971059  0.79417188  0.26955384    -0.15700
F694        F  0.18189696  0.71122939  0.37918262    -0.14200
F695        F  0.11378598  0.69445706  0.36715511    -0.14200
F696        F  0.08554088  0.81210805  0.43332755    -0.15600
C697        C  0.89171722  0.78499099  0.61083243     0.14400
C698        C  0.88291074  0.75517545  0.62722348     0.01400
C699        C  0.89821474  0.72512337  0.61756889     0.16400
C700        C  0.92216256  0.72479821  0.59199169     0.25800
C701        C  0.93131326  0.75467416  0.57545094    -0.40600
C702        C  0.91563359  0.78480743  0.58515972     0.32800
C703        C  0.85746803  0.75523122  0.65417778     0.01400
F704        F  0.89030658  0.69606365  0.63337139    -0.12900
F705        F  0.92298377  0.81413004  0.56958481    -0.13400
C706        C  0.82729240  0.73746280  0.65013683     0.16400
C707        C  0.80326236  0.73725255  0.67561123     0.25800
C708        C  0.80902915  0.75485119  0.70541689    -0.40500
C709        C  0.83921087  0.77250624  0.70961751     0.32700
C710        C  0.86331974  0.77271397  0.68412298     0.14400
F711        F  0.82087380  0.72087358  0.62120914    -0.12900
F712        F  0.84517209  0.78962107  0.73832749    -0.13400
F713        F  0.77414233  0.72021219  0.67107213    -0.15700
F714        F  0.89253075  0.78962365  0.68874138    -0.14200
F715        F  0.87663235  0.81422899  0.61929061    -0.14200
F716        F  0.93664335  0.69518300  0.58385400    -0.15600
C717        C  0.10432595  0.72073366  0.61881024     0.14400
C718        C  0.12807916  0.74656308  0.62156123     0.01400
C719        C  0.12639604  0.77394856  0.59959971     0.16400
C720        C  0.10129677  0.77557741  0.57525160     0.25800
C721        C  0.07740477  0.74973365  0.57241009    -0.40600
C722        C  0.07923218  0.72224447  0.59443839     0.32800
C723        C  0.15444457  0.74520067  0.64753511     0.01400
F724        F  0.14947528  0.79888921  0.60142366    -0.12900
F725        F  0.05619801  0.69720207  0.59301691    -0.13400
C726        C  0.17824042  0.71928804  0.64755355     0.16400
C727        C  0.20368443  0.71865428  0.67162580     0.25800
C728        C  0.20547930  0.74373911  0.69617047    -0.40500
C729        C  0.18122238  0.76920330  0.69655924     0.32700
C730        C  0.15605564  0.77006106  0.67230273     0.14400
F731        F  0.17726290  0.69507630  0.62376526    -0.12900
F732        F  0.18167059  0.79298228  0.72077059    -0.13400
F733        F  0.22693111  0.69390468  0.67069269    -0.15700
F734        F  0.13288972  0.79489790  0.67325481    -0.14200
F735        F  0.10498353  0.69439769  0.64027574    -0.14200
F736        F  0.10092989  0.80204972  0.55394651    -0.15600
C737        C  0.61218172  0.78004947  0.11443548     0.14400
C738        C  0.62751700  0.75009357  0.12416988     0.01400
C739        C  0.61758254  0.71990764  0.10943596     0.16400
C740        C  0.59261128  0.71953772  0.08498238     0.25800
C741        C  0.57692563  0.74954269  0.07489075    -0.40600
C742        C  0.58702518  0.77986234  0.09007883     0.32800
C743        C  0.65351136  0.75007984  0.15023814     0.01400
F744        F  0.63236576  0.69074189  0.11862741    -0.12900
F745        F  0.57249842  0.80938703  0.08169357    -0.13400
C746        C  0.64599659  0.73769501  0.18222940     0.16400
C747        C  0.67066548  0.73714876  0.20693230     0.25800
C748        C  0.70299167  0.74932126  0.19999647    -0.40500
C749        C  0.71066202  0.76133702  0.16788045     0.32700
C750        C  0.68600026  0.76171025  0.14307264     0.14400
F751        F  0.61465581  0.72645376  0.18953017    -0.12900
F752        F  0.74192630  0.77286737  0.16073816    -0.13400
F753        F  0.66310645  0.72463384  0.23759807    -0.15700
F754        F  0.69379100  0.77311403  0.11201405    -0.14200
F755        F  0.62126019  0.80941638  0.12895368    -0.14200
F756        F  0.58404737  0.68970099  0.07118351    -0.15600
C757        C  0.85997218  0.68121861  0.24042026     0.14400
C758        C  0.85203759  0.64928016  0.25288038     0.01400
C759        C  0.82033224  0.64356097  0.26726406     0.16400
C760        C  0.79666462  0.66928112  0.26849882     0.25800
C761        C  0.80441645  0.70096638  0.25540409    -0.40600
C762        C  0.83631504  0.70691824  0.24171969     0.32800
C763        C  0.87702835  0.62210315  0.25100281     0.01400
F764        F  0.81204154  0.61284980  0.27928167    -0.12900
F765        F  0.84420064  0.73737365  0.22886541    -0.13400
C766        C  0.88956141  0.60768699  0.28038289     0.16400
C767        C  0.91430699  0.58305434  0.27881286     0.25800
C768        C  0.92705023  0.57219929  0.24764528    -0.40500
C769        C  0.91389168  0.58645736  0.21814461     0.32700
C770        C  0.88911415  0.61113955  0.21988927     0.14400
F771        F  0.87835511  0.61807231  0.31074416    -0.12900
F772        F  0.92497335  0.57674992  0.18752919    -0.13400
F773        F  0.92583403  0.57011897  0.30802049    -0.15700
F774        F  0.87666986  0.62423000  0.19111902    -0.14200
F775        F  0.89070114  0.68745425  0.22706076    -0.14200
F776        F  0.76594066  0.66319965  0.28192171    -0.15600
C777        C  0.72836941  0.82178140  0.35696026     0.14400
C778        C  0.74468672  0.85272339  0.35259297     0.01400
C779        C  0.76274775  0.85877315  0.32292819     0.16400
C780        C  0.76484263  0.83416544  0.29824872     0.25800
C781        C  0.74907048  0.80314007  0.30292713    -0.40600
C782        C  0.73065682  0.79710111  0.33228247     0.32800
C783        C  0.74382201  0.87842016  0.37922719     0.01400
F784        F  0.77811999  0.88868704  0.31777868    -0.12900
F785        F  0.71503466  0.76724462  0.33700423    -0.13400
C786        C  0.77390674  0.89017763  0.39315766     0.16400
C787        C  0.77357756  0.91511671  0.41760465     0.25800
C788        C  0.74297556  0.92870652  0.42901995    -0.40500
C789        C  0.71272989  0.91649556  0.41516515     0.32700
C790        C  0.71322459  0.89165661  0.39048205     0.14400
F791        F  0.80376769  0.87714521  0.38329691    -0.12900
F792        F  0.68256649  0.92870794  0.42512724    -0.13400
F793        F  0.80341387  0.92577892  0.43004256    -0.15700
F794        F  0.68380241  0.88103283  0.37702428    -0.14200
F795        F  0.71092527  0.81520899  0.38542802    -0.14200
F796        F  0.78225985  0.84056672  0.26975114    -0.15600
C797        C  0.72217509  0.61671202  0.11025023     0.14400
C798        C  0.75190838  0.62215229  0.12828224     0.01400
C799        C  0.78035348  0.60287367  0.12102038     0.16400
C800        C  0.77930709  0.57878840  0.09577332     0.25800
C801        C  0.74964512  0.57341132  0.07730455    -0.40600
C802        C  0.72094556  0.59244855  0.08510397     0.32800
C803        C  0.75329167  0.64809147  0.15453470     0.01400
F804        F  0.80907874  0.60703728  0.13878652    -0.12900
F805        F  0.69184240  0.58818376  0.06800522    -0.13400
C806        C  0.73109075  0.64676504  0.18184876     0.16400
C807        C  0.73167760  0.67183841  0.20611355     0.25800
C808        C  0.75438145  0.69855714  0.20334654    -0.40500
C809        C  0.77702952  0.69963986  0.17645882     0.32700
C810        C  0.77652890  0.67452840  0.15218771     0.14400
F811        F  0.70906842  0.62100208  0.18513218    -0.12900
F812        F  0.79908831  0.72538744  0.17338759    -0.13400
F813        F  0.71012040  0.67010913  0.23237723    -0.15700
F814        F  0.79807362  0.67647993  0.12590268    -0.14200
F815        F  0.69450603  0.63548733  0.11650569    -0.14200
F816        F  0.80727596  0.56035384  0.08990481    -0.15600
C817        C  0.82379920  0.73652457  0.35833734     0.14400
C818        C  0.85194458  0.75737545  0.35444430     0.01400
C819        C  0.85519568  0.77715490  0.32559389     0.16400
C820        C  0.83079379  0.77564367  0.30060826     0.25800
C821        C  0.80279434  0.75460940  0.30442939    -0.40600
C822        C  0.79925992  0.73525529  0.33348632     0.32800
C823        C  0.87858642  0.75734615  0.37989059     0.01400
F824        F  0.88241692  0.79720352  0.32131520    -0.12900
F825        F  0.77208959  0.71513232  0.33764243    -0.13400
C826        C  0.89866109  0.72891259  0.38397863     0.16400
C827        C  0.92377915  0.72839582  0.40825680     0.25800
C828        C  0.92921212  0.75643673  0.42897968    -0.40500
C829        C  0.90900827  0.78502727  0.42462384     0.32700
C830        C  0.88393939  0.78545217  0.40018235     0.14400
F831        F  0.89416000  0.70176271  0.36404724    -0.12900
F832        F  0.91288508  0.81228362  0.44451248    -0.13400
F833        F  0.94312010  0.70060937  0.41099006    -0.15700
F834        F  0.86441270  0.81303182  0.39672048    -0.14200
F835        F  0.82016094  0.71750450  0.38626453    -0.14200
F836        F  0.83469313  0.79424740  0.27244809    -0.15600
C837        C  0.32909133  0.84978604  0.22459803     0.14400
C838        C  0.35717308  0.84549333  0.24536936     0.01400
C839        C  0.35879263  0.81749075  0.26660494     0.16400
C840        C  0.33249753  0.79431998  0.26729499     0.25800
C841        C  0.30449884  0.79873066  0.24656320    -0.40600
C842        C  0.30302493  0.82642306  0.22505022     0.32800
C843        C  0.38422686  0.87079672  0.24547858     0.01400
F844        F  0.38600182  0.81246243  0.28635553    -0.12900
F845        F  0.27610473  0.83103405  0.20483757    -0.13400
C846        C  0.39198114  0.88811857  0.27499398     0.16400
C847        C  0.41626816  0.91335476  0.27484966     0.25800
C848        C  0.43316177  0.92193534  0.24499585    -0.40500
C849        C  0.42581655  0.90387247  0.21558316     0.32700
C850        C  0.40157101  0.87856587  0.21588041     0.14400
F851        F  0.37517268  0.88134477  0.30380414    -0.12900
F852        F  0.44217016  0.91044724  0.18647612    -0.13400
F853        F  0.42247926  0.92990952  0.30384184    -0.15700
F854        F  0.39506879  0.86150333  0.18723477    -0.14200
F855        F  0.32658431  0.87704985  0.20447824    -0.14200
F856        F  0.33436651  0.76744993  0.28798923    -0.15600
C857        C  0.60059163  0.12048926  0.21388424     0.14400
C858        C  0.62137996  0.12513872  0.24176687     0.01400
C859        C  0.61709853  0.10498177  0.27015494     0.16400
C860        C  0.59242874  0.08018336  0.27066785     0.25800
C861        C  0.57155126  0.07515930  0.24267152    -0.40600
C862        C  0.57580557  0.09571788  0.21429186     0.32800
C863        C  0.64828853  0.15035516  0.24109218     0.01400
F864        F  0.63753485  0.10873755  0.29705748    -0.12900
F865        F  0.55580022  0.09216629  0.18705515    -0.13400
C866        C  0.64736689  0.17768103  0.26312581     0.16400
C867        C  0.67380384  0.20062468  0.26367653     0.25800
C868        C  0.70143355  0.19631658  0.24233042    -0.40500
C869        C  0.70221316  0.16920451  0.22008696     0.32700
C870        C  0.67571943  0.14635427  0.21940563     0.14400
F871        F  0.62076611  0.18213602  0.28390318    -0.12900
F872        F  0.72888808  0.16467368  0.19944501    -0.13400
F873        F  0.67245287  0.22712326  0.28485642    -0.15700
F874        F  0.67717768  0.11982987  0.19825277    -0.14200
F875        F  0.60419452  0.14013911  0.18637578    -0.14200
F876        F  0.58977081  0.06046528  0.29822478    -0.15600
C877        C  0.61236118  0.88867511  0.21207693     0.14400
C878        C  0.62949684  0.88132778  0.24179783     0.01400
C879        C  0.62221577  0.89944264  0.27089584     0.16400
C880        C  0.59739205  0.92399653  0.27068824     0.25800
C881        C  0.57910405  0.93078174  0.24125461    -0.40600
C882        C  0.58732687  0.91318334  0.21174709     0.32800
C883        C  0.65418020  0.85396098  0.24305440     0.01400
F884        F  0.63924592  0.89324683  0.29963986    -0.12900
F885        F  0.57060209  0.91890569  0.18274467    -0.13400
C886        C  0.68466471  0.85646025  0.22557004     0.16400
C887        C  0.70843377  0.83093731  0.22803640     0.25800
C888        C  0.70202620  0.80285314  0.24816196    -0.40500
C889        C  0.67155034  0.80030261  0.26556595     0.32700
C890        C  0.64765982  0.82561734  0.26284821     0.14400
F891        F  0.69167538  0.88395570  0.20684753    -0.12900
F892        F  0.66500929  0.77335448  0.28520318    -0.13400
F893        F  0.73791537  0.83372362  0.21119436    -0.15700
F894        F  0.61805263  0.82250702  0.27942724    -0.14200
F895        F  0.61914158  0.87132379  0.18366851    -0.14200
F896        F  0.59141489  0.94110273  0.29940623    -0.15600
C897        C  0.67499237  0.24822725  0.85444895     0.14400
C898        C  0.64287119  0.26067673  0.84737717     0.01400
C899        C  0.63595661  0.27377430  0.81553048     0.16400
C900        C  0.66078378  0.27376206  0.79079584     0.25800
C901        C  0.69286777  0.26117917  0.79789169    -0.40600
C902        C  0.69992227  0.24869561  0.82990962     0.32800
C903        C  0.61661276  0.25957366  0.87331495     0.01400
F904        F  0.60501659  0.28591110  0.80828957    -0.12900
F905        F  0.73082044  0.23647367  0.83713983    -0.13400
C906        C  0.60493465  0.28920757  0.88790386     0.16400
C907        C  0.58135261  0.28803136  0.91379305     0.25800
C908        C  0.56886284  0.25701702  0.92544037    -0.40500
C909        C  0.58031543  0.22735027  0.91007137     0.32700
C910        C  0.60402485  0.22870705  0.88433989     0.14400
F911        F  0.61698647  0.31929226  0.87753952    -0.12900
F912        F  0.56866666  0.19689837  0.91976861    -0.13400
F913        F  0.57107648  0.31734405  0.92751120    -0.15700
F914        F  0.61465127  0.19981740  0.86997446    -0.14200
F915        F  0.68214056  0.23572945  0.88520534    -0.14200
F916        F  0.65361812  0.28599530  0.75994221    -0.15600
C917        C  0.85582633  0.32290865  0.75388299     0.14400
C918        C  0.84853146  0.35595111  0.74448446     0.01400
C919        C  0.81581874  0.36428005  0.73449573     0.16400
C920        C  0.79051986  0.33999877  0.73480426     0.25800
C921        C  0.79763783  0.30720056  0.74517995    -0.40600
C922        C  0.83050410  0.29875130  0.75447150     0.32800
C923        C  0.87481149  0.38190517  0.74667621     0.01400
F924        F  0.80824004  0.39609083  0.72533859    -0.12900
F925        F  0.83786429  0.26731670  0.76491986    -0.13400
C926        C  0.88586032  0.39875414  0.71793761     0.16400
C927        C  0.91136231  0.42269442  0.72013644     0.25800
C928        C  0.92633846  0.43024564  0.75129470    -0.40500
C929        C  0.91470601  0.41349399  0.78012212     0.32700
C930        C  0.88920605  0.38958248  0.77775731     0.14400
F931        F  0.87236282  0.39156438  0.68759645    -0.12900
F932        F  0.92805458  0.41994243  0.81067243    -0.13400
F933        F  0.92120928  0.43843728  0.69163639    -0.15700
F934        F  0.87826794  0.37401568  0.80595666    -0.14200
F935        F  0.88752327  0.31416083  0.76263463    -0.14200
F936        F  0.75899968  0.34845785  0.72521711    -0.15600
C937        C  0.77213666  0.11143736  0.61437230     0.14400
C938        C  0.74176023  0.12575311  0.62486733     0.01400
C939        C  0.71162363  0.11483660  0.61033565     0.16400
C940        C  0.71181298  0.09018940  0.58549982     0.25800
C941        C  0.74227544  0.07572295  0.57473401    -0.40600
C942        C  0.77246219  0.08670141  0.58962088     0.32800
C943        C  0.74162220  0.15265140  0.65037079     0.01400
F944        F  0.68185932  0.12787955  0.62046320    -0.12900
F945        F  0.80247335  0.07365186  0.58030515    -0.13400
C946        C  0.72857778  0.18437045  0.64254657     0.16400
C947        C  0.72929706  0.21009901  0.66620375     0.25800
C948        C  0.74279269  0.20444013  0.69808229    -0.40500
C949        C  0.75540629  0.17268217  0.70616838     0.32700
C950        C  0.75497483  0.14698269  0.68242807     0.14400
F951        F  0.71576793  0.19059962  0.61172477    -0.12900
F952        F  0.76830323  0.16669112  0.73699794    -0.13400
F953        F  0.71682222  0.24059997  0.65806523    -0.15700
F954        F  0.76723209  0.11644620  0.69081982    -0.14200
F955        F  0.80167933  0.12196863  0.62762764    -0.14200
F956        F  0.68204772  0.08079725  0.57191572    -0.15600
C957        C  0.72401229  0.35885139  0.82509333     0.14400
C958        C  0.74838577  0.35662835  0.85034927     0.01400
C959        C  0.77238498  0.33096220  0.84898244     0.16400
C960        C  0.77161278  0.30748874  0.82305698     0.25800
C961        C  0.74713655  0.30962692  0.79788357    -0.40600
C962        C  0.72359234  0.33571040  0.79888680     0.32800
C963        C  0.74887362  0.38130987  0.87791031     0.01400
F964        F  0.79602208  0.32818053  0.87324083    -0.12900
F965        F  0.70029682  0.33881170  0.77437359    -0.13400
C966        C  0.72143159  0.38401512  0.89982446     0.16400
C967        C  0.72139423  0.40814911  0.92516819     0.25800
C968        C  0.74888092  0.43005640  0.92902884    -0.40500
C969        C  0.77661738  0.42680021  0.90734008     0.32700
C970        C  0.77654446  0.40268520  0.88201716     0.14400
F971        F  0.69481633  0.36294597  0.89689831    -0.12900
F972        F  0.80350662  0.44755223  0.90996191    -0.13400
F973        F  0.69471595  0.40959933  0.94628738    -0.15700
F974        F  0.80316968  0.40078304  0.86086788    -0.14200
F975        F  0.70089976  0.38374895  0.82562883    -0.14200
F976        F  0.79425368  0.28217819  0.82291694    -0.15600
C977        C  0.63932949  0.18566101  0.72624055     0.14400
C978        C  0.64151279  0.15884515  0.74888982     0.01400
C979        C  0.66859321  0.15725846  0.77126785     0.16400
C980        C  0.69325441  0.18205188  0.77094870     0.25800
C981        C  0.69109762  0.20878534  0.74834702    -0.40600
C982        C  0.66395334  0.21061333  0.72609670     0.32800
C983        C  0.61596646  0.13210414  0.74906821     0.01400
F984        F  0.67155517  0.13116749  0.79281832    -0.12900
F985        F  0.66138357  0.23655148  0.70432395    -0.13400
C986        C  0.61162547  0.11166306  0.72089654     0.16400
C987        C  0.58887562  0.08504774  0.72178008     0.25800
C988        C  0.57004054  0.07839470  0.75096520    -0.40500
C989        C  0.57422312  0.09930034  0.77903421     0.32700
C990        C  0.59694834  0.12594537  0.77800679     0.14400
F991        F  0.63017457  0.11688919  0.69283245    -0.12900
F992        F  0.55598038  0.09438899  0.80733379    -0.13400
F993        F  0.58598707  0.06533015  0.69427418    -0.15700
F994        F  0.60027294  0.14598485  0.80523286    -0.14200
F995        F  0.61324426  0.18776416  0.70453987    -0.14200
F996        F  0.71962297  0.17970255  0.79225312    -0.15600
C997        C  0.39550893  0.22182474  0.11862120     0.14400
C998        C  0.37270417  0.24837984  0.12111521     0.01400
C999        C  0.37523662  0.27552033  0.09901225     0.16400
C1000       C  0.40056337  0.27631596  0.07482048     0.25800
C1001       C  0.42383426  0.24992197  0.07244102    -0.40600
C1002       C  0.42087801  0.22251782  0.09443897     0.32800
C1003       C  0.34670476  0.24814059  0.14732262     0.01400
F1004       F  0.35289755  0.30107646  0.10069318    -0.12900
F1005       F  0.44307981  0.19683483  0.09320778    -0.13400
C1006       C  0.34862918  0.27087359  0.17400730     0.16400
C1007       C  0.32438442  0.27036472  0.19923235     0.25800
C1008       C  0.29774868  0.24741157  0.19782122    -0.40500
C1009       C  0.29559683  0.22488232  0.17096953     0.32700
C1010       C  0.32009574  0.22510636  0.14592430     0.14400
F1011       F  0.37434714  0.29312459  0.17585915    -0.12900
F1012       F  0.26963006  0.20295193  0.16892724    -0.13400
F1013       F  0.32702409  0.29198580  0.22526907    -0.15700
F1014       F  0.31768768  0.20321915  0.12007167    -0.14200
F1015       F  0.39364698  0.19561983  0.14019215    -0.14200
F1016       F  0.40181649  0.30256564  0.05326631    -0.15600
C1017       C  0.14408769  0.31929156  0.22722157     0.14400
C1018       C  0.14651803  0.34759522  0.24783559     0.01400
C1019       C  0.17338106  0.35043505  0.27035623     0.16400
C1020       C  0.19780717  0.32540702  0.27193009     0.25800
C1021       C  0.19559049  0.29726306  0.25102399    -0.40600
C1022       C  0.16845850  0.29423557  0.22884472     0.32800
C1023       C  0.12070396  0.37394154  0.24622830     0.01400
F1024       F  0.17618292  0.37774102  0.29035227    -0.12900
F1025       F  0.16571769  0.26702903  0.20872409    -0.13400
C1026       C  0.09622867  0.37605759  0.27133577     0.16400
C1027       C  0.07187641  0.40113001  0.27020548     0.25800
C1028       C  0.07166836  0.42465821  0.24391096    -0.40500
C1029       C  0.09601466  0.42212954  0.21845521     0.32700
C1030       C  0.12040156  0.39695928  0.21968483     0.14400
F1031       F  0.09578143  0.35356602  0.29681083    -0.12900
F1032       F  0.09686527  0.44458070  0.19296513    -0.13400
F1033       F  0.04806077  0.40193875  0.29452661    -0.15700
F1034       F  0.14414527  0.39538513  0.19533772    -0.14200
F1035       F  0.11797020  0.31591017  0.20572286    -0.14200
F1036       F  0.22403744  0.32895506  0.29325447    -0.15600
C1037       C  0.27815621  0.10509979  0.38753225     0.14400
C1038       C  0.24946441  0.12431974  0.38136719     0.01400
C1039       C  0.22035883  0.11878227  0.40039336     0.16400
C1040       C  0.21980136  0.09398626  0.42511670     0.25800
C1041       C  0.24842882  0.07418483  0.43111808    -0.40600
C1042       C  0.27770811  0.08024447  0.41211476     0.32800
C1043       C  0.24967318  0.14947986  0.35435683     0.01400
F1044       F  0.19253570  0.13760444  0.39511328    -0.12900
F1045       F  0.30573110  0.06151596  0.41653393    -0.13400
C1046       C  0.22970159  0.14468937  0.32584358     0.16400
C1047       C  0.22996883  0.16830824  0.30009521     0.25800
C1048       C  0.25032922  0.19687520  0.30248203    -0.40500
C1049       C  0.27059390  0.20155270  0.33078892     0.32700
C1050       C  0.27020525  0.17800361  0.35666331     0.14400
F1051       F  0.21028878  0.11690214  0.32283243    -0.12900
F1052       F  0.29027782  0.22917644  0.33352299    -0.13400
F1053       F  0.21032351  0.16341602  0.27282607    -0.15700
F1054       F  0.28935546  0.18325444  0.38423355    -0.14200
F1055       F  0.30636817  0.10978858  0.36899479    -0.14200
F1056       F  0.19132575  0.08965880  0.44331618    -0.15600
C1057       C  0.25608068  0.35656022  0.18406213     0.14400
C1058       C  0.24325686  0.35029623  0.15191524     0.01400
C1059       C  0.23200781  0.31789652  0.14384969     0.16400
C1060       C  0.23347744  0.29224056  0.16760257     0.25800
C1061       C  0.24634951  0.29861121  0.19962834    -0.40600
C1062       C  0.25773949  0.33085430  0.20766886     0.32800
C1063       C  0.24239824  0.37730683  0.12655570     0.01400
F1064       F  0.22012137  0.31101571  0.11278887    -0.12900
F1065       F  0.27050664  0.33735174  0.23845054    -0.13400
C1066       C  0.27211591  0.39373534  0.11717869     0.16400
C1067       C  0.27170800  0.41849464  0.09250036     0.25800
C1068       C  0.24148620  0.42720041  0.07631894    -0.40500
C1069       C  0.21155018  0.41114376  0.08641672     0.32700
C1070       C  0.21206362  0.38648328  0.11129547     0.14400
F1071       F  0.30181397  0.38523862  0.13143093    -0.12900
F1072       F  0.18172025  0.41892429  0.07206830    -0.13400
F1073       F  0.30107795  0.43388023  0.08459195    -0.15700
F1074       F  0.18282440  0.37168226  0.12069959    -0.14200
F1075       F  0.26658936  0.38770450  0.19271732    -0.14200
F1076       F  0.22207735  0.26126127  0.15951252    -0.15600
C1077       C  0.35701409  0.17873146  0.26098874     0.14400
C1078       C  0.34993089  0.14662368  0.24838786     0.01400
C1079       C  0.31760274  0.13965981  0.23614353     0.16400
C1080       C  0.29278710  0.16432698  0.23654679     0.25800
C1081       C  0.29984880  0.19629024  0.24928330    -0.40600
C1082       C  0.33211246  0.20337720  0.26144698     0.32800
C1083       C  0.37620197  0.12040593  0.24779942     0.01400
F1084       F  0.30996365  0.10877354  0.22421524    -0.12900
F1085       F  0.33940652  0.23417705  0.27377595    -0.13400
C1086       C  0.39139254  0.10966711  0.27759054     0.16400
C1087       C  0.41594225  0.08466189  0.27703676     0.25800
C1088       C  0.42587406  0.06981550  0.24652621    -0.40500
C1089       C  0.41038863  0.08070669  0.21671229     0.32700
C1090       C  0.38592223  0.10573066  0.21740515     0.14400
F1091       F  0.38206842  0.12309771  0.30737897    -0.12900
F1092       F  0.41883083  0.06727116  0.18668072    -0.13400
F1093       F  0.43003339  0.07526391  0.30647221    -0.15700
F1094       F  0.37205834  0.11608057  0.18817796    -0.14200
F1095       F  0.38820821  0.18634470  0.27230772    -0.14200
F1096       F  0.26186914  0.15710776  0.22431389    -0.15600
C1097       C  0.85388974  0.21729440  0.32283650     0.14400
C1098       C  0.85233256  0.24118435  0.34854848     0.01400
C1099       C  0.82684267  0.26533367  0.34823600     0.16400
C1100       C  0.80327446  0.26574928  0.32243584     0.25800
C1101       C  0.80518251  0.24235408  0.29630972    -0.40600
C1102       C  0.83052611  0.21798121  0.29674156     0.32800
C1103       C  0.87766282  0.24145596  0.37541685     0.01400
F1104       F  0.82459758  0.28823373  0.37320536    -0.12900
F1105       F  0.83273560  0.19509347  0.27176505    -0.13400
C1106       C  0.90141746  0.26736867  0.37694494     0.16400
C1107       C  0.92535195  0.26797986  0.40245984     0.25800
C1108       C  0.92592642  0.24257659  0.42686759    -0.40500
C1109       C  0.90192156  0.21667774  0.42532223     0.32700
C1110       C  0.87796331  0.21617003  0.39977306     0.14400
F1111       F  0.90170897  0.29180658  0.35332975    -0.12900
F1112       F  0.90107506  0.19232934  0.44901993    -0.13400
F1113       F  0.94853159  0.29292789  0.40272271    -0.15700
F1114       F  0.85463206  0.19136390  0.39911920    -0.14200
F1115       F  0.87841441  0.19377412  0.32275313    -0.14200
F1116       F  0.77820264  0.28862814  0.32322381    -0.15600
C1117       C  0.10091413  0.27367584  0.61871848     0.14400
C1118       C  0.11723256  0.24389267  0.62771627     0.01400
C1119       C  0.10905549  0.21413557  0.61095390     0.16400
C1120       C  0.08511861  0.21410268  0.58544778     0.25800
C1121       C  0.06892498  0.24400421  0.57595472    -0.40600
C1122       C  0.07712968  0.27381846  0.59302557     0.32800
C1123       C  0.14356783  0.24397050  0.65380225     0.01400
F1124       F  0.12496526  0.18514043  0.61869598    -0.12900
F1125       F  0.06197541  0.30318395  0.58520707    -0.13400
C1126       C  0.14104946  0.22270873  0.68178420     0.16400
C1127       C  0.16653734  0.22216834  0.70577696     0.25800
C1128       C  0.19459641  0.24314625  0.70229282    -0.40500
C1129       C  0.19712240  0.26442304  0.67450066     0.32700
C1130       C  0.17186154  0.26478462  0.65036218     0.14400
F1131       F  0.11362192  0.20295988  0.68614998    -0.12900
F1132       F  0.22420536  0.28474200  0.67075015    -0.13400
F1133       F  0.16364467  0.20161244  0.73268115    -0.15700
F1134       F  0.17531015  0.28502538  0.62328207    -0.14200
F1135       F  0.10776322  0.30264421  0.63511888    -0.14200
F1136       F  0.07837007  0.18476265  0.56971498    -0.15600
C1137       C  0.89397850  0.27628897  0.61666854     0.14400
C1138       C  0.87261129  0.24879532  0.62153313     0.01400
C1139       C  0.87679919  0.21993564  0.60202853     0.16400
C1140       C  0.90207894  0.21856694  0.57780479     0.25800
C1141       C  0.92359267  0.24614763  0.57273299    -0.40600
C1142       C  0.91927186  0.27503156  0.59250537     0.32800
C1143       C  0.84603706  0.25021462  0.64713641     0.01400
F1144       F  0.85593491  0.19331884  0.60605692    -0.12900
F1145       F  0.93993012  0.30187803  0.58901114    -0.13400
C1146       C  0.81968966  0.27328855  0.64407069     0.16400
C1147       C  0.79476928  0.27493153  0.66859276     0.25800
C1148       C  0.79599608  0.25360416  0.69642863    -0.40500
C1149       C  0.82221606  0.23040132  0.69942751     0.32700
C1150       C  0.84714616  0.22875019  0.67492463     0.14400
F1151       F  0.81796879  0.29390522  0.61712749    -0.12900
F1152       F  0.82396899  0.20984330  0.72640056    -0.05000
F1153       F  0.76929715  0.29715469  0.66518016    -0.15700
F1154       F  0.87279638  0.20676182  0.67862371    -0.14200
F1155       F  0.89068025  0.30416556  0.63579902    -0.14200
F1156       F  0.90491414  0.19055177  0.55882546    -0.15600
C1157       C  0.10994087  0.21251702  0.39154082     0.14400
C1158       C  0.12261607  0.24294012  0.37930438     0.01400
C1159       C  0.10980328  0.27312381  0.39167032     0.16400
C1160       C  0.08468612  0.27303249  0.41603921     0.25800
C1161       C  0.07186352  0.24256142  0.42871075    -0.40600
C1162       C  0.08481151  0.21225113  0.41602090     0.32800
C1163       C  0.14885377  0.24339829  0.35321226     0.01400
F1164       F  0.12123948  0.30281989  0.37961180    -0.12900
F1165       F  0.07327033  0.18225814  0.42716123    -0.13400
C1166       C  0.14227458  0.22996925  0.32142011     0.16400
C1167       C  0.16667535  0.23145812  0.29635637     0.25800
C1168       C  0.19789932  0.24634992  0.30278769    -0.40500
C1169       C  0.20459136  0.25969416  0.33455162     0.32700
C1170       C  0.18020587  0.25820830  0.35965468     0.14400
F1171       F  0.11197810  0.21602510  0.31451731    -0.12900
F1172       F  0.23467064  0.27423405  0.34113707    -0.13400
F1173       F  0.15996196  0.21829327  0.26579319    -0.15700
F1174       F  0.18721737  0.27094771  0.39034828    -0.14200
F1175       F  0.12224045  0.18302263  0.38002990    -0.14200
F1176       F  0.07290013  0.30295688  0.42693566    -0.15600
loop_ 
_geom_bond_atom_site_label_1 
_geom_bond_atom_site_label_2 
_geom_bond_distance 
_geom_bond_site_symmetry_2 
_ccdc_geom_bond_type 
O1           Cu9   2.006   1_455  S
O1           C11   1.278       .  A
O2           Cu9   2.005       .  S
O2           C12   1.277       .  A
O3           Cu9   2.014   1_455  S
O3           C13   1.279       .  A
O4           Cu9   2.008       .  S
O4           C14   1.278       .  A
O5          Cu10   1.996       .  S
O5           C14   1.276       .  A
O6          Cu10   1.995   1_455  S
O6           C13   1.276       .  A
O7          Cu10   2.010       .  S
O7           C12   1.278       .  A
O8          Cu10   2.010   1_455  S
O8           C11   1.278       .  A
Cu9         Cu10   2.368       .  S
C11        C1121   1.487       .  S
C12        C1108   1.479       .  S
C13        C1161   1.487       .  S
C14        C1141   1.479       .  S
C15        C1081   1.486       .  S
C15          C16   1.411       .  A
C15          C20   1.412       .  A
C16        C1048   1.481       .  S
C16          C17   1.412       .  A
C17        C1168   1.480       .  S
C17          C18   1.410       .  A
C18        C1021   1.486       .  S
C18          C19   1.411       .  A
C19        C1061   1.483       .  S
C19          C20   1.413       .  A
C20        C1008   1.480       .  S
C21        C1148   1.480       .  S
C21          C22   1.413       .  A
C21          C26   1.409       .  A
C22         C921   1.483       .  S
C22          C23   1.414       .  A
C23         C961   1.488       .  S
C23          C24   1.413       .  A
C24         C901   1.481       .  S
C24          C25   1.411       .  A
C25         C981   1.479       .  S
C25          C26   1.408       .  A
C26         C948   1.485       .  S
O27         Cu35   2.003       .  S
O27          C37   1.277       .  A
O28         Cu35   2.010   1_545  S
O28          C38   1.278       .  A
O29         Cu35   2.001       .  S
O29          C39   1.277       .  A
O30         Cu35   1.997   1_545  S
O30          C40   1.277       .  A
O31         Cu36   2.002   1_545  S
O31          C40   1.277       .  A
O32         Cu36   2.004       .  S
O32          C39   1.278       .  A
O33         Cu36   2.012   1_545  S
O33          C38   1.279       .  A
O34         Cu36   2.011       .  S
O34          C37   1.278       .  A
Cu35        Cu36   2.367       .  S
C37         C881   1.485       .  S
C38        C1088   1.491       .  S
C39         C848   1.483       .  S
C40         C861   1.478       .  S
C41         C888   1.479       .  S
C41          C42   1.408       .  A
C41          C46   1.408       .  A
C42         C748   1.480       .  S
C42          C43   1.409       .  A
C43         C808   1.480       .  S
C43          C44   1.410       .  A
C44         C761   1.482       .  S
C44          C45   1.411       .  A
C45         C821   1.477       .  S
C45          C46   1.410       .  A
C46         C781   1.481       .  S
O47         Cu55   1.999   1_655  S
O47          C57   1.277       .  A
O48         Cu55   2.002       .  S
O48          C58   1.277       .  A
O49         Cu55   2.008   1_655  S
O49          C59   1.278       .  A
O50         Cu55   2.008       .  S
O50          C60   1.278       .  A
O51         Cu56   2.003       .  S
O51          C60   1.277       .  A
O52         Cu56   2.007   1_655  S
O52          C59   1.278       .  A
O53         Cu56   2.013       .  S
O53          C58   1.279       .  A
O54         Cu56   2.010   1_655  S
O54          C57   1.278       .  A
Cu55        Cu56   2.368       .  S
C57         C828   1.481       .  S
C58         C721   1.481       .  S
C59         C701   1.487       .  S
C60         C681   1.486       .  S
C61         C608   1.482       .  S
C61          C62   1.413       .  A
C61          C66   1.414       .  A
C62         C728   1.489       .  S
C62          C63   1.413       .  A
C63         C628   1.488       .  S
C63          C64   1.415       .  A
C64         C661   1.481       .  S
C64          C65   1.415       .  A
C65         C581   1.488       .  S
C65          C66   1.412       .  A
C66         C641   1.489       .  S
O67         Cu75   2.004   1_565  S
O67          C77   1.278       .  A
O68         Cu75   2.002       .  S
O68          C78   1.277       .  A
O69         Cu75   2.016   1_565  S
O69          C79   1.279       .  A
O70         Cu75   2.012       .  S
O70          C80   1.279       .  A
O71         Cu76   1.992       .  S
O71          C80   1.276       .  A
O72         Cu76   1.991   1_565  S
O72          C79   1.276       .  A
O73         Cu76   2.006       .  S
O73          C78   1.278       .  A
O74         Cu76   2.007   1_565  S
O74          C77   1.278       .  A
Cu75        Cu76   2.368       .  S
C77         C568   1.486       .  S
C78         C541   1.480       .  S
C79         C668   1.482       .  S
C80         C988   1.481       .  S
O81         Cu89   2.002   1_556  S
O81          C91   1.278       .  A
O82         Cu89   2.001       .  S
O82          C92   1.277       .  A
O83         Cu89   2.003   1_556  S
O83          C93   1.277       .  A
O84         Cu89   1.998       .  S
O84          C94   1.277       .  A
O85         Cu90   2.013       .  S
O85          C94   1.279       .  A
O86         Cu90   2.016   1_556  S
O86          C93   1.279       .  A
O87         Cu90   2.017       .  S
O87          C92   1.279       .  A
O88         Cu90   2.020   1_556  S
O88          C91   1.279       .  A
Cu89        Cu90   2.367       .  S
C91         C648   1.487       .  S
C92        C1068   1.489       .  S
C93         C508   1.486       .  S
C94         C528   1.482       .  S
O95        Cu103   2.011       .  S
O95         C105   1.278       .  A
O96        Cu103   2.012   1_556  S
O96         C106   1.279       .  A
O97        Cu103   2.013       .  S
O97         C107   1.279       .  A
O98        Cu103   2.020   1_556  S
O98         C108   1.279       .  A
O99        Cu104   2.002   1_556  S
O99         C108   1.277       .  A
O100       Cu104   2.000       .  S
O100        C107   1.277       .  A
O101       Cu104   2.002   1_556  S
O101        C106   1.277       .  A
O102       Cu104   1.997       .  S
O102        C105   1.277       .  A
Cu103      Cu104   2.367       .  S
C105        C801   1.482       .  S
C106        C968   1.483       .  S
C107        C461   1.484       .  S
C108        C488   1.491       .  S
C109        C708   1.482       .  S
C109        C110   1.414       .  A
C109        C114   1.411       .  A
C110        C428   1.482       .  S
C110        C111   1.413       .  A
C111        C481   1.485       .  S
C111        C112   1.410       .  A
C112        C401   1.478       .  S
C112        C113   1.408       .  A
C113        C561   1.482       .  S
C113        C114   1.408       .  A
C114        C448   1.482       .  S
O115       Cu123   2.024   1_565  S
O115        C125   1.280       .  A
O116       Cu123   2.023       .  S
O116        C126   1.280       .  A
O117       Cu123   2.009   1_565  S
O117        C127   1.277       .  A
O118       Cu123   2.008       .  S
O118        C128   1.278       .  A
O119       Cu124   2.011       .  S
O119        C128   1.278       .  A
O120       Cu124   2.009   1_565  S
O120        C127   1.278       .  A
O121       Cu124   1.992       .  S
O121        C126   1.276       .  A
O122       Cu124   1.991   1_565  S
O122        C125   1.276       .  A
Cu123      Cu124   2.364       .  S
C125        C441   1.489       .  S
C126        C388   1.487       .  S
C127        C788   1.489       .  S
C128        C941   1.490       .  S
C129        C868   1.477       .  S
C129        C130   1.412       .  A
C129        C134   1.409       .  A
C130        C381   1.485       .  S
C130        C131   1.413       .  A
C131       C1101   1.485       .  S
C131        C132   1.413       .  A
C132        C361   1.480       .  S
C132        C133   1.412       .  A
C133        C468   1.481       .  S
C133        C134   1.408       .  A
C134        C348   1.485       .  S
O135       Cu143   2.022       .  S
O135        C145   1.280       .  A
O136       Cu143   2.018   1_655  S
O136        C146   1.279       .  A
O137       Cu143   2.009       .  S
O137        C147   1.277       .  A
O138       Cu143   2.010   1_655  S
O138        C148   1.280       .  A
O139       Cu144   1.997   1_655  S
O139        C148   1.275       .  A
O140       Cu144   2.004       .  S
O140        C147   1.278       .  A
O141       Cu144   1.995   1_655  S
O141        C146   1.276       .  A
O142       Cu144   1.998       .  S
O142        C145   1.277       .  A
Cu143      Cu144   2.366       .  S
C145       C1028   1.481       .  S
C146        C768   1.488       .  S
C147        C321   1.488       .  S
C148        C368   1.484       .  S
C149        C841   1.479       .  S
C149        C150   1.411       .  A
C149        C154   1.412       .  A
C150        C288   1.480       .  S
C150        C151   1.407       .  A
C151        C521   1.480       .  S
C151        C152   1.408       .  A
C152        C328   1.481       .  S
C152        C153   1.410       .  A
C153        C688   1.479       .  S
C153        C154   1.413       .  A
C154        C308   1.486       .  S
O155       Cu163   2.001   1_545  S
O155        C165   1.277       .  A
O156       Cu163   2.001       .  S
O156        C166   1.277       .  A
O157       Cu163   2.001   1_545  S
O157        C167   1.277       .  A
O158       Cu163   1.998       .  S
O158        C168   1.277       .  A
O159       Cu164   2.015       .  S
O159        C168   1.278       .  A
O160       Cu164   2.014   1_545  S
O160        C167   1.279       .  A
O161       Cu164   2.015       .  S
O161        C166   1.279       .  A
O162       Cu164   2.018   1_545  S
O162        C165   1.280       .  A
Cu163      Cu164   2.368       .  S
C165        C261   1.489       .  S
C166        C301   1.486       .  S
C167       C1041   1.485       .  S
C168        C621   1.476       .  S
C169        C548   1.483       .  S
C169        C170   1.411       .  A
C169        C174   1.412       .  A
C170        C268   1.485       .  S
C170        C171   1.412       .  A
C171       C1128   1.480       .  S
C171        C172   1.412       .  A
C172        C248   1.484       .  S
C172        C173   1.411       .  A
C173        C501   1.487       .  S
C173        C174   1.411       .  A
C174        C228   1.480       .  S
O175       Cu183   2.020       .  S
O175        C185   1.279       .  A
O176       Cu183   2.019   1_655  S
O176        C186   1.280       .  A
O177       Cu183   2.013       .  S
O177        C187   1.278       .  A
O178       Cu183   2.010   1_655  S
O178        C188   1.278       .  A
O179       Cu184   2.007   1_655  S
O179        C188   1.278       .  A
O180       Cu184   2.009       .  S
O180        C187   1.278       .  A
O181       Cu184   1.986   1_655  S
O181        C186   1.274       .  A
O182       Cu184   1.985       .  S
O182        C185   1.275       .  A
Cu183      Cu184   2.365       .  S
C185        C601   1.485       .  S
C186        C928   1.485       .  S
C187        C241   1.486       .  S
C188        C421   1.490       .  S
O189       Cu197   2.007   1_554  S
O189        C199   1.278       .  A
O190       Cu197   2.004       .  S
O190        C200   1.278       .  A
O191       Cu197   2.004   1_554  S
O191        C201   1.277       .  A
O192       Cu197   1.999       .  S
O192        C202   1.277       .  A
O193       Cu198   2.006   1_556  S
O193        C202   1.277       .  A
O194       Cu198   2.013       .  S
O194        C201   1.279       .  A
O195       Cu198   2.001   1_556  S
O195        C200   1.277       .  A
O196       Cu198   2.003       .  S
O196        C199   1.277       .  A
Cu197      Cu198   2.367   1_556  S
C199       C1001   1.479       .  S
C200        C908   1.486       .  S
C201        C341   1.489       .  S
C202        C221   1.484       .  S
O203       Cu211   2.004       .  S
O203        C213   1.277       .  A
O204       Cu211   1.998   1_556  S
O204        C214   1.277       .  A
O205       Cu211   2.007       .  S
O205        C215   1.278       .  A
O206       Cu211   2.008   1_556  S
O206        C216   1.278       .  A
O207       Cu212   2.008   1_556  S
O207        C216   1.278       .  A
O208       Cu212   2.006       .  S
O208        C215   1.277       .  A
O209       Cu212   2.005   1_556  S
O209        C214   1.278       .  A
O210       Cu212   2.006       .  S
O210        C213   1.278       .  A
Cu211      Cu212   2.367       .  S
C213        C281   1.480       .  S
C214        C408   1.482       .  S
C215        C741   1.487       .  S
C216        C588   1.490       .  S
C217        C218   1.402       .  A
C217        C222   1.394       .  A
C217        F235   1.358       .  S
C218        C223   1.474       .  S
C218        C219   1.403       .  A
C219        C220   1.399       .  A
C219        F224   1.358       .  S
C220        C221   1.412       .  A
C220        F236   1.358       .  S
C221        C222   1.411       .  A
C222        F225   1.358       .  S
C223        C226   1.405       .  A
C223        C230   1.405       .  A
C226        C227   1.394       .  A
C226        F231   1.358       .  S
C227        C228   1.402       .  A
C227        F233   1.357       .  S
C228        C229   1.405       .  A
C229        C230   1.398       .  A
C229        F232   1.357       .  S
C230        F234   1.358       .  S
C237        C238   1.401       .  A
C237        C242   1.399       .  A
C237        F255   1.358       .  S
C238        C243   1.473       .  S
C238        C239   1.402       .  A
C239        C240   1.400       .  A
C239        F244   1.358       .  S
C240        C241   1.412       .  A
C240        F256   1.358       .  S
C241        C242   1.411       .  A
C242        F245   1.358       .  S
C243        C246   1.403       .  A
C243        C250   1.404       .  A
C246        C247   1.398       .  A
C246        F251   1.358       .  S
C247        C248   1.404       .  A
C247        F253   1.358       .  S
C248        C249   1.404       .  A
C249        C250   1.398       .  A
C249        F252   1.357       .  S
C250        F254   1.357       .  S
C257        C258   1.402       .  A
C257        C262   1.399       .  A
C257        F275   1.358       .  S
C258        C263   1.476       .  S
C258        C259   1.402       .  A
C259        C260   1.399       .  A
C259        F264   1.358       .  S
C260        C261   1.414       .  A
C260        F276   1.358       .  S
C261        C262   1.412       .  A
C262        F265   1.357       .  S
C263        C266   1.405       .  A
C263        C270   1.404       .  A
C266        C267   1.400       .  A
C266        F271   1.358       .  S
C267        C268   1.405       .  A
C267        F273   1.357       .  S
C268        C269   1.404       .  A
C269        C270   1.397       .  A
C269        F272   1.357       .  S
C270        F274   1.358       .  S
C277        C278   1.402       .  A
C277        C282   1.400       .  A
C277        F295   1.358       .  S
C278        C283   1.470       .  S
C278        C279   1.400       .  A
C279        C280   1.395       .  A
C279        F284   1.358       .  S
C280        C281   1.409       .  A
C280        F296   1.358       .  S
C281        C282   1.411       .  A
C282        F285   1.358       .  S
C283        C286   1.403       .  A
C283        C290   1.403       .  A
C286        C287   1.398       .  A
C286        F291   1.358       .  S
C287        C288   1.404       .  A
C287        F293   1.357       .  S
C288        C289   1.403       .  A
C289        C290   1.396       .  A
C289        F292   1.357       .  S
C290        F294   1.358       .  S
C297        C298   1.407       .  A
C297        C302   1.400       .  A
C297        F315   1.358       .  S
C298        C303   1.484       .  S
C298        C299   1.404       .  A
C299        C300   1.397       .  A
C299        F304   1.358       .  S
C300        C301   1.411       .  A
C300        F316   1.358       .  S
C301        C302   1.410       .  A
C302        F305   1.358       .  S
C303        C306   1.407       .  A
C303        C310   1.408       .  A
C306        C307   1.398       .  A
C306        F311   1.358       .  S
C307        C308   1.404       .  A
C307        F313   1.357       .  S
C308        C309   1.404       .  A
C309        C310   1.398       .  A
C309        F312   1.357       .  S
C310        F314   1.358       .  S
C317        C318   1.402       .  A
C317        C322   1.398       .  A
C317        F335   1.358       .  S
C318        C323   1.475       .  S
C318        C319   1.401       .  A
C319        C320   1.398       .  A
C319        F324   1.358       .  S
C320        C321   1.413       .  A
C320        F336   1.357       .  S
C321        C322   1.412       .  A
C322        F325   1.358       .  S
C323        C326   1.404       .  A
C323        C330   1.406       .  A
C326        C327   1.396       .  A
C326        F331   1.358       .  S
C327        C328   1.403       .  A
C327        F333   1.357       .  S
C328        C329   1.403       .  A
C329        C330   1.398       .  A
C329        F332   1.357       .  S
C330        F334   1.358       .  S
C337        C338   1.403       .  A
C337        C342   1.399       .  A
C337        F355   1.358       .  S
C338        C343   1.479       .  S
C338        C339   1.403       .  A
C339        C340   1.399       .  A
C339        F344   1.358       .  S
C340        C341   1.412       .  A
C340        F356   1.358       .  S
C341        C342   1.413       .  A
C342        F345   1.358       .  S
C343        C346   1.406       .  A
C343        C350   1.405       .  A
C346        C347   1.399       .  A
C346        F351   1.358       .  S
C347        C348   1.403       .  A
C347        F353   1.357       .  S
C348        C349   1.404       .  A
C349        C350   1.397       .  A
C349        F352   1.357       .  S
C350        F354   1.358       .  S
C357        C358   1.404       .  A
C357        C362   1.399       .  A
C357        F375   1.358       .  S
C358        C363   1.470       .  S
C358        C359   1.401       .  A
C359        C360   1.393       .  A
C359        F364   1.358       .  S
C360        C361   1.404       .  A
C360        F376   1.357       .  S
C361        C362   1.404       .  A
C362        F365   1.358       .  S
C363        C366   1.402       .  A
C363        C370   1.398       .  A
C366        C367   1.400       .  A
C366        F371   1.358       .  S
C367        C368   1.411       .  A
C367        F373   1.359       .  S
C368        C369   1.413       .  A
C369        C370   1.395       .  A
C369        F372   1.357       .  S
C370        F374   1.358       .  S
C377        C378   1.406       .  A
C377        C382   1.397       .  A
C377        F395   1.358       .  S
C378        C383   1.482       .  S
C378        C379   1.408       .  A
C379        C380   1.398       .  A
C379        F384   1.358       .  S
C380        C381   1.403       .  A
C380        F396   1.357       .  S
C381        C382   1.404       .  A
C382        F385   1.357       .  S
C383        C386   1.406       .  A
C383        C390   1.403       .  A
C386        C387   1.401       .  A
C386        F391   1.358       .  S
C387        C388   1.410       .  A
C387        F393   1.358       .  S
C388        C389   1.412       .  A
C389        C390   1.396       .  A
C389        F392   1.358       .  S
C390        F394   1.358       .  S
C397        C398   1.404       .  A
C397        C402   1.396       .  A
C397        F415   1.358       .  S
C398        C403   1.470       .  S
C398        C399   1.403       .  A
C399        C400   1.396       .  A
C399        F404   1.358       .  S
C400        C401   1.402       .  A
C400        F416   1.357       .  S
C401        C402   1.404       .  A
C402        F405   1.357       .  S
C403        C406   1.400       .  A
C403        C410   1.401       .  A
C406        C407   1.395       .  A
C406        F411   1.358       .  S
C407        C408   1.411       .  A
C407        F413   1.358       .  S
C408        C409   1.412       .  A
C409        C410   1.398       .  A
C409        F412   1.358       .  S
C410        F414   1.358       .  S
C417        C418   1.403       .  A
C417        C422   1.398       .  A
C417        F435   1.358       .  S
C418        C423   1.481       .  S
C418        C419   1.404       .  A
C419        C420   1.400       .  A
C419        F424   1.358       .  S
C420        C421   1.413       .  A
C420        F436   1.358       .  S
C421        C422   1.412       .  A
C422        F425   1.358       .  S
C423        C426   1.406       .  A
C423        C430   1.407       .  A
C426        C427   1.398       .  A
C426        F431   1.358       .  S
C427        C428   1.403       .  A
C427        F433   1.357       .  S
C428        C429   1.403       .  A
C429        C430   1.399       .  A
C429        F432   1.357       .  S
C430        F434   1.358       .  S
C437        C438   1.405       .  A
C437        C442   1.401       .  A
C437        F455   1.358       .  S
C438        C443   1.479       .  S
C438        C439   1.401       .  A
C439        C440   1.395       .  A
C439        F444   1.358       .  S
C440        C441   1.414       .  A
C440        F456   1.358       .  S
C441        C442   1.412       .  A
C442        F445   1.358       .  S
C443        C446   1.405       .  A
C443        C450   1.407       .  A
C446        C447   1.396       .  A
C446        F451   1.358       .  S
C447        C448   1.403       .  A
C447        F453   1.357       .  S
C448        C449   1.403       .  A
C449        C450   1.399       .  A
C449        F452   1.357       .  S
C450        F454   1.358       .  S
C457        C458   1.402       .  A
C457        C462   1.398       .  A
C457        F475   1.358       .  S
C458        C463   1.475       .  S
C458        C459   1.403       .  A
C459        C460   1.397       .  A
C459        F464   1.358       .  S
C460        C461   1.410       .  A
C460        F476   1.358       .  S
C461        C462   1.412       .  A
C462        F465   1.358       .  S
C463        C466   1.403       .  A
C463        C470   1.406       .  A
C466        C467   1.394       .  A
C466        F471   1.358       .  S
C467        C468   1.403       .  A
C467        F473   1.357       .  S
C468        C469   1.403       .  A
C469        C470   1.399       .  A
C469        F472   1.358       .  S
C470        F474   1.358       .  S
C477        C478   1.406       .  A
C477        C482   1.399       .  A
C477        F495   1.358       .  S
C478        C483   1.481       .  S
C478        C479   1.405       .  A
C479        C480   1.400       .  A
C479        F484   1.358       .  S
C480        C481   1.404       .  A
C480        F496   1.357       .  S
C481        C482   1.403       .  A
C482        F485   1.357       .  S
C483        C486   1.404       .  A
C483        C490   1.402       .  A
C486        C487   1.403       .  A
C486        F491   1.358       .  S
C487        C488   1.413       .  A
C487        F493   1.358       .  S
C488        C489   1.413       .  A
C489        C490   1.397       .  A
C489        F492   1.358       .  S
C490        F494   1.358       .  S
C497        C498   1.407       .  A
C497        C502   1.399       .  A
C497        F515   1.358       .  S
C498        C503   1.481       .  S
C498        C499   1.405       .  A
C499        C500   1.397       .  A
C499        F504   1.358       .  S
C500        C501   1.404       .  A
C500        F516   1.357       .  S
C501        C502   1.404       .  A
C502        F505   1.357       .  S
C503        C506   1.405       .  A
C503        C510   1.403       .  A
C506        C507   1.400       .  A
C506        F511   1.358       .  S
C507        C508   1.410       .  A
C507        F513   1.358       .  S
C508        C509   1.411       .  A
C509        C510   1.398       .  A
C509        F512   1.358       .  S
C510        F514   1.358       .  S
C517        C518   1.403       .  A
C517        C522   1.396       .  A
C517        F535   1.358       .  S
C518        C523   1.471       .  S
C518        C519   1.404       .  A
C519        C520   1.397       .  A
C519        F524   1.358       .  S
C520        C521   1.403       .  A
C520        F536   1.358       .  S
C521        C522   1.403       .  A
C522        F525   1.357       .  S
C523        C526   1.402       .  A
C523        C530   1.401       .  A
C526        C527   1.398       .  A
C526        F531   1.358       .  S
C527        C528   1.410       .  A
C527        F533   1.358       .  S
C528        C529   1.411       .  A
C529        C530   1.397       .  A
C529        F532   1.358       .  S
C530        F534   1.358       .  S
C537        C538   1.403       .  A
C537        C542   1.397       .  A
C537        F555   1.358       .  S
C538        C543   1.476       .  S
C538        C539   1.403       .  A
C539        C540   1.398       .  A
C539        F544   1.358       .  S
C540        C541   1.410       .  A
C540        F556   1.358       .  S
C541        C542   1.409       .  A
C542        F545   1.358       .  S
C543        C546   1.405       .  A
C543        C550   1.405       .  A
C546        C547   1.397       .  A
C546        F551   1.358       .  S
C547        C548   1.404       .  A
C547        F553   1.357       .  S
C548        C549   1.404       .  A
C549        C550   1.397       .  A
C549        F552   1.357       .  S
C550        F554   1.358       .  S
C557        C558   1.405       .  A
C557        C562   1.396       .  A
C557        F575   1.358       .  S
C558        C563   1.477       .  S
C558        C559   1.406       .  A
C559        C560   1.398       .  A
C559        F564   1.358       .  S
C560        C561   1.403       .  A
C560        F576   1.357       .  S
C561        C562   1.403       .  A
C562        F565   1.357       .  S
C563        C566   1.403       .  A
C563        C570   1.403       .  A
C566        C567   1.397       .  A
C566        F571   1.358       .  S
C567        C568   1.412       .  A
C567        F573   1.358       .  S
C568        C569   1.412       .  A
C569        C570   1.398       .  A
C569        F572   1.358       .  S
C570        F574   1.358       .  S
C577        C578   1.405       .  A
C577        C582   1.397       .  A
C577        F595   1.358       .  S
C578        C583   1.480       .  S
C578        C579   1.406       .  A
C579        C580   1.401       .  A
C579        F584   1.358       .  S
C580        C581   1.406       .  A
C580        F596   1.358       .  S
C581        C582   1.404       .  A
C582        F585   1.357       .  S
C583        C586   1.403       .  A
C583        C590   1.403       .  A
C586        C587   1.399       .  A
C586        F591   1.358       .  S
C587        C588   1.413       .  A
C587        F593   1.358       .  S
C588        C589   1.413       .  A
C589        C590   1.399       .  A
C589        F592   1.358       .  S
C590        F594   1.358       .  S
C597        C598   1.397       .  A
C597        C602   1.393       .  A
C597        F615   1.358       .  S
C598        C603   1.468       .  S
C598        C599   1.401       .  A
C599        C600   1.400       .  A
C599        F604   1.358       .  S
C600        C601   1.412       .  A
C600        F616   1.358       .  S
C601        C602   1.414       .  A
C602        F605   1.358       .  S
C603        C606   1.402       .  A
C603        C610   1.403       .  A
C606        C607   1.395       .  A
C606        F611   1.358       .  S
C607        C608   1.405       .  A
C607        F613   1.357       .  S
C608        C609   1.405       .  A
C609        C610   1.395       .  A
C609        F612   1.357       .  S
C610        F614   1.358       .  S
C617        C618   1.405       .  A
C617        C622   1.402       .  A
C617        F635   1.357       .  S
C618        C623   1.477       .  S
C618        C619   1.403       .  A
C619        C620   1.396       .  A
C619        F624   1.358       .  S
C620        C621   1.407       .  A
C620        F636   1.358       .  S
C621        C622   1.408       .  A
C622        F625   1.358       .  S
C623        C626   1.405       .  A
C623        C630   1.404       .  A
C626        C627   1.400       .  A
C626        F631   1.358       .  S
C627        C628   1.406       .  A
C627        F633   1.357       .  S
C628        C629   1.405       .  A
C629        C630   1.397       .  A
C629        F632   1.357       .  S
C630        F634   1.358       .  S
C637        C638   1.407       .  A
C637        C642   1.399       .  A
C637        F655   1.358       .  S
C638        C643   1.482       .  S
C638        C639   1.405       .  A
C639        C640   1.398       .  A
C639        F644   1.358       .  S
C640        C641   1.406       .  A
C640        F656   1.357       .  S
C641        C642   1.404       .  A
C642        F645   1.358       .  S
C643        C646   1.403       .  A
C643        C650   1.406       .  A
C646        C647   1.397       .  A
C646        F651   1.358       .  S
C647        C648   1.410       .  A
C647        F653   1.358       .  S
C648        C649   1.411       .  A
C649        C650   1.403       .  A
C649        F652   1.358       .  S
C650        F654   1.358       .  S
C657        C658   1.407       .  A
C657        C662   1.398       .  A
C657        F675   1.358       .  S
C658        C663   1.477       .  S
C658        C659   1.404       .  A
C659        C660   1.394       .  A
C659        F664   1.358       .  S
C660        C661   1.404       .  A
C660        F676   1.357       .  S
C661        C662   1.403       .  A
C662        F665   1.358       .  S
C663        C666   1.402       .  A
C663        C670   1.405       .  A
C666        C667   1.395       .  A
C666        F671   1.358       .  S
C667        C668   1.411       .  A
C667        F673   1.358       .  S
C668        C669   1.409       .  A
C669        C670   1.399       .  A
C669        F672   1.358       .  S
C670        F674   1.358       .  S
C677        C678   1.404       .  A
C677        C682   1.398       .  A
C677        F695   1.358       .  S
C678        C683   1.478       .  S
C678        C679   1.403       .  A
C679        C680   1.397       .  A
C679        F684   1.358       .  S
C680        C681   1.412       .  A
C680        F696   1.358       .  S
C681        C682   1.411       .  A
C682        F685   1.358       .  S
C683        C686   1.407       .  A
C683        C690   1.406       .  A
C686        C687   1.397       .  A
C686        F691   1.358       .  S
C687        C688   1.402       .  A
C687        F693   1.358       .  S
C688        C689   1.403       .  A
C689        C690   1.395       .  A
C689        F692   1.357       .  S
C690        F694   1.358       .  S
C697        C698   1.403       .  A
C697        C702   1.400       .  A
C697        F715   1.358       .  S
C698        C703   1.478       .  S
C698        C699   1.403       .  A
C699        C700   1.398       .  A
C699        F704   1.358       .  S
C700        C701   1.412       .  A
C700        F716   1.358       .  S
C701        C702   1.412       .  A
C702        F705   1.358       .  S
C703        C706   1.405       .  A
C703        C710   1.406       .  A
C706        C707   1.397       .  A
C706        F711   1.358       .  S
C707        C708   1.403       .  A
C707        F713   1.357       .  S
C708        C709   1.404       .  A
C709        C710   1.400       .  A
C709        F712   1.357       .  S
C710        F714   1.358       .  S
C717        C718   1.404       .  A
C717        C722   1.399       .  A
C717        F735   1.358       .  S
C718        C723   1.480       .  S
C718        C719   1.405       .  A
C719        C720   1.398       .  A
C719        F724   1.357       .  S
C720        C721   1.408       .  A
C720        F736   1.358       .  S
C721        C722   1.410       .  A
C722        F725   1.358       .  S
C723        C726   1.406       .  A
C723        C730   1.405       .  A
C726        C727   1.399       .  A
C726        F731   1.358       .  S
C727        C728   1.405       .  A
C727        F733   1.357       .  S
C728        C729   1.405       .  A
C729        C730   1.397       .  A
C729        F732   1.357       .  S
C730        F734   1.358       .  S
C737        C738   1.401       .  A
C737        C742   1.399       .  A
C737        F755   1.358       .  S
C738        C743   1.471       .  S
C738        C739   1.400       .  A
C739        C740   1.396       .  A
C739        F744   1.358       .  S
C740        C741   1.413       .  A
C740        F756   1.357       .  S
C741        C742   1.414       .  A
C742        F745   1.358       .  S
C743        C746   1.403       .  A
C743        C750   1.404       .  A
C746        C747   1.395       .  A
C746        F751   1.358       .  S
C747        C748   1.403       .  A
C747        F753   1.357       .  S
C748        C749   1.403       .  A
C749        C750   1.398       .  A
C749        F752   1.357       .  S
C750        F754   1.358       .  S
C757        C758   1.405       .  A
C757        C762   1.397       .  A
C757        F775   1.358       .  S
C758        C763   1.477       .  S
C758        C759   1.406       .  A
C759        C760   1.398       .  A
C759        F764   1.358       .  S
C760        C761   1.404       .  A
C760        F776   1.357       .  S
C761        C762   1.403       .  A
C762        F765   1.357       .  S
C763        C766   1.401       .  A
C763        C770   1.404       .  A
C766        C767   1.397       .  A
C766        F771   1.358       .  S
C767        C768   1.414       .  A
C767        F773   1.358       .  S
C768        C769   1.412       .  A
C769        C770   1.399       .  A
C769        F772   1.358       .  S
C770        F774   1.358       .  S
C777        C778   1.407       .  A
C777        C782   1.399       .  A
C777        F795   1.358       .  S
C778        C783   1.480       .  S
C778        C779   1.407       .  A
C779        C780   1.396       .  A
C779        F784   1.358       .  S
C780        C781   1.401       .  A
C780        F796   1.357       .  S
C781        C782   1.404       .  A
C782        F785   1.358       .  S
C783        C786   1.403       .  A
C783        C790   1.404       .  A
C786        C787   1.396       .  A
C786        F791   1.358       .  S
C787        C788   1.412       .  A
C787        F793   1.357       .  S
C788        C789   1.413       .  A
C789        C790   1.400       .  A
C789        F792   1.358       .  S
C790        F794   1.358       .  S
C797        C798   1.405       .  A
C797        C802   1.398       .  A
C797        F815   1.358       .  S
C798        C803   1.477       .  S
C798        C799   1.402       .  A
C799        C800   1.396       .  A
C799        F804   1.358       .  S
C800        C801   1.411       .  A
C800        F816   1.358       .  S
C801        C802   1.410       .  A
C802        F805   1.358       .  S
C803        C806   1.405       .  A
C803        C810   1.406       .  A
C806        C807   1.395       .  A
C806        F811   1.358       .  S
C807        C808   1.402       .  A
C807        F813   1.357       .  S
C808        C809   1.403       .  A
C809        C810   1.397       .  A
C809        F812   1.357       .  S
C810        F814   1.358       .  S
C817        C818   1.404       .  A
C817        C822   1.396       .  A
C817        F835   1.358       .  S
C818        C823   1.472       .  S
C818        C819   1.403       .  A
C819        C820   1.396       .  A
C819        F824   1.358       .  S
C820        C821   1.404       .  A
C820        F836   1.357       .  S
C821        C822   1.402       .  A
C822        F825   1.357       .  S
C823        C826   1.401       .  A
C823        C830   1.402       .  A
C826        C827   1.396       .  A
C826        F831   1.358       .  S
C827        C828   1.411       .  A
C827        F833   1.358       .  S
C828        C829   1.410       .  A
C829        C830   1.399       .  A
C829        F832   1.358       .  S
C830        F834   1.358       .  S
C837        C838   1.405       .  A
C837        C842   1.395       .  A
C837        F855   1.358       .  S
C838        C843   1.477       .  S
C838        C839   1.406       .  A
C839        C840   1.397       .  A
C839        F844   1.358       .  S
C840        C841   1.402       .  A
C840        F856   1.357       .  S
C841        C842   1.403       .  A
C842        F845   1.357       .  S
C843        C846   1.403       .  A
C843        C850   1.404       .  A
C846        C847   1.396       .  A
C846        F851   1.358       .  S
C847        C848   1.411       .  A
C847        F853   1.358       .  S
C848        C849   1.411       .  A
C849        C850   1.397       .  A
C849        F852   1.358       .  S
C850        F854   1.358       .  S
C857        C858   1.402       .  A
C857        C862   1.397       .  A
C857        F875   1.358       .  S
C858        C863   1.470       .  S
C858        C859   1.401       .  A
C859        C860   1.395       .  A
C859        F864   1.358       .  S
C860        C861   1.410       .  A
C860        F876   1.358       .  S
C861        C862   1.410       .  A
C862        F865   1.358       .  S
C863        C866   1.404       .  A
C863        C870   1.404       .  A
C866        C867   1.395       .  A
C866        F871   1.358       .  S
C867        C868   1.403       .  A
C867        F873   1.357       .  S
C868        C869   1.403       .  A
C869        C870   1.395       .  A
C869        F872   1.357       .  S
C870        F874   1.358       .  S
C877        C878   1.403       .  A
C877        C882   1.400       .  A
C877        F895   1.358       .  S
C878        C883   1.474       .  S
C878        C879   1.401       .  A
C879        C880   1.395       .  A
C879        F884   1.358       .  S
C880        C881   1.412       .  A
C880        F896   1.358       .  S
C881        C882   1.412       .  A
C882        F885   1.358       .  S
C883        C886   1.404       .  A
C883        C890   1.405       .  A
C886        C887   1.397       .  A
C886        F891   1.358       .  S
C887        C888   1.403       .  A
C887        F893   1.358       .  S
C888        C889   1.402       .  A
C889        C890   1.395       .  A
C889        F892   1.357       .  S
C890        F894   1.358       .  S
C897        C898   1.404       .  A
C897        C902   1.395       .  A
C897        F915   1.358       .  S
C898        C903   1.473       .  S
C898        C899   1.404       .  A
C899        C900   1.398       .  A
C899        F904   1.358       .  S
C900        C901   1.405       .  A
C900        F916   1.358       .  S
C901        C902   1.403       .  A
C902        F905   1.357       .  S
C903        C906   1.401       .  A
C903        C910   1.401       .  A
C906        C907   1.398       .  A
C906        F911   1.358       .  S
C907        C908   1.413       .  A
C907        F913   1.358       .  S
C908        C909   1.412       .  A
C909        C910   1.397       .  A
C909        F912   1.358       .  S
C910        F914   1.358       .  S
C917        C918   1.404       .  A
C917        C922   1.395       .  A
C917        F935   1.358       .  S
C918        C923   1.475       .  S
C918        C919   1.405       .  A
C919        C920   1.398       .  A
C919        F924   1.358       .  S
C920        C921   1.404       .  A
C920        F936   1.358       .  S
C921        C922   1.404       .  A
C922        F925   1.357       .  S
C923        C926   1.401       .  A
C923        C930   1.403       .  A
C926        C927   1.397       .  A
C926        F931   1.358       .  S
C927        C928   1.414       .  A
C927        F933   1.358       .  S
C928        C929   1.410       .  A
C929        C930   1.397       .  A
C929        F932   1.357       .  S
C930        F934   1.358       .  S
C937        C938   1.404       .  A
C937        C942   1.399       .  A
C937        F955   1.358       .  S
C938        C943   1.482       .  S
C938        C939   1.404       .  A
C939        C940   1.399       .  A
C939        F944   1.358       .  S
C940        C941   1.413       .  A
C940        F956   1.358       .  S
C941        C942   1.412       .  A
C942        F945   1.358       .  S
C943        C946   1.407       .  A
C943        C950   1.407       .  A
C946        C947   1.398       .  A
C946        F951   1.358       .  S
C947        C948   1.402       .  A
C947        F953   1.357       .  S
C948        C949   1.404       .  A
C949        C950   1.399       .  A
C949        F952   1.357       .  S
C950        F954   1.358       .  S
C957        C958   1.405       .  A
C957        C962   1.398       .  A
C957        F975   1.358       .  S
C958        C963   1.479       .  S
C958        C959   1.405       .  A
C959        C960   1.399       .  A
C959        F964   1.358       .  S
C960        C961   1.405       .  A
C960        F976   1.357       .  S
C961        C962   1.405       .  A
C962        F965   1.357       .  S
C963        C966   1.405       .  A
C963        C970   1.403       .  A
C966        C967   1.399       .  A
C966        F971   1.358       .  S
C967        C968   1.410       .  A
C967        F973   1.358       .  S
C968        C969   1.410       .  A
C969        C970   1.398       .  A
C969        F972   1.358       .  S
C970        F974   1.358       .  S
C977        C978   1.406       .  A
C977        C982   1.398       .  A
C977        F995   1.358       .  S
C978        C983   1.474       .  S
C978        C979   1.405       .  A
C979        C980   1.394       .  A
C979        F984   1.358       .  S
C980        C981   1.402       .  A
C980        F996   1.357       .  S
C981        C982   1.404       .  A
C982        F985   1.357       .  S
C983        C986   1.402       .  A
C983        C990   1.403       .  A
C986        C987   1.397       .  A
C986        F991   1.358       .  S
C987        C988   1.411       .  A
C987        F993   1.358       .  S
C988        C989   1.409       .  A
C989        C990   1.397       .  A
C989        F992   1.358       .  S
C990        F994   1.358       .  S
C997        C998   1.402       .  A
C997       C1002   1.398       .  A
C997       F1015   1.358       .  S
C998       C1003   1.472       .  S
C998        C999   1.402       .  A
C999       C1000   1.397       .  A
C999       F1004   1.358       .  S
C1000      C1001   1.409       .  A
C1000      F1016   1.358       .  S
C1001      C1002   1.409       .  A
C1002      F1005   1.358       .  S
C1003      C1006   1.404       .  A
C1003      C1010   1.404       .  A
C1006      C1007   1.396       .  A
C1006      F1011   1.358       .  S
C1007      C1008   1.403       .  A
C1007      F1013   1.357       .  S
C1008      C1009   1.404       .  A
C1009      C1010   1.397       .  A
C1009      F1012   1.357       .  S
C1010      F1014   1.358       .  S
C1017      C1018   1.403       .  A
C1017      C1022   1.398       .  A
C1017      F1035   1.358       .  S
C1018      C1023   1.475       .  S
C1018      C1019   1.404       .  A
C1019      C1020   1.399       .  A
C1019      F1024   1.358       .  S
C1020      C1021   1.404       .  A
C1020      F1036   1.357       .  S
C1021      C1022   1.405       .  A
C1022      F1025   1.357       .  S
C1023      C1026   1.401       .  A
C1023      C1030   1.404       .  A
C1026      C1027   1.397       .  A
C1026      F1031   1.358       .  S
C1027      C1028   1.410       .  A
C1027      F1033   1.358       .  S
C1028      C1029   1.409       .  A
C1029      C1030   1.401       .  A
C1029      F1032   1.358       .  S
C1030      F1034   1.358       .  S
C1037      C1038   1.401       .  A
C1037      C1042   1.397       .  A
C1037      F1055   1.358       .  S
C1038      C1043   1.475       .  S
C1038      C1039   1.403       .  A
C1039      C1040   1.399       .  A
C1039      F1044   1.358       .  S
C1040      C1041   1.411       .  A
C1040      F1056   1.358       .  S
C1041      C1042   1.412       .  A
C1042      F1045   1.358       .  S
C1043      C1046   1.404       .  A
C1043      C1050   1.405       .  A
C1046      C1047   1.396       .  A
C1046      F1051   1.358       .  S
C1047      C1048   1.403       .  A
C1047      F1053   1.357       .  S
C1048      C1049   1.404       .  A
C1049      C1050   1.398       .  A
C1049      F1052   1.358       .  S
C1050      F1054   1.358       .  S
C1057      C1058   1.406       .  A
C1057      C1062   1.396       .  A
C1057      F1075   1.358       .  S
C1058      C1063   1.481       .  S
C1058      C1059   1.407       .  A
C1059      C1060   1.399       .  A
C1059      F1064   1.358       .  S
C1060      C1061   1.403       .  A
C1060      F1076   1.357       .  S
C1061      C1062   1.403       .  A
C1062      F1065   1.357       .  S
C1063      C1066   1.403       .  A
C1063      C1070   1.405       .  A
C1066      C1067   1.397       .  A
C1066      F1071   1.358       .  S
C1067      C1068   1.412       .  A
C1067      F1073   1.358       .  S
C1068      C1069   1.412       .  A
C1069      C1070   1.400       .  A
C1069      F1072   1.358       .  S
C1070      F1074   1.358       .  S
C1077      C1078   1.407       .  A
C1077      C1082   1.400       .  A
C1077      F1095   1.358       .  S
C1078      C1083   1.483       .  S
C1078      C1079   1.406       .  A
C1079      C1080   1.398       .  A
C1079      F1084   1.358       .  S
C1080      C1081   1.404       .  A
C1080      F1096   1.357       .  S
C1081      C1082   1.404       .  A
C1082      F1085   1.357       .  S
C1083      C1086   1.404       .  A
C1083      C1090   1.404       .  A
C1086      C1087   1.400       .  A
C1086      F1091   1.358       .  S
C1087      C1088   1.413       .  A
C1087      F1093   1.358       .  S
C1088      C1089   1.412       .  A
C1089      C1090   1.399       .  A
C1089      F1092   1.358       .  S
C1090      F1094   1.358       .  S
C1097      C1098   1.405       .  A
C1097      C1102   1.400       .  A
C1097      F1115   1.358       .  S
C1098      C1103   1.475       .  S
C1098      C1099   1.403       .  A
C1099      C1100   1.396       .  A
C1099      F1104   1.358       .  S
C1100      C1101   1.404       .  A
C1100      F1116   1.356       .  S
C1101      C1102   1.405       .  A
C1102      F1105   1.357       .  S
C1103      C1106   1.403       .  A
C1103      C1110   1.403       .  A
C1106      C1107   1.398       .  A
C1106      F1111   1.358       .  S
C1107      C1108   1.408       .  A
C1107      F1113   1.358       .  S
C1108      C1109   1.409       .  A
C1109      C1110   1.399       .  A
C1109      F1112   1.358       .  S
C1110      F1114   1.358       .  S
C1117      C1118   1.405       .  A
C1117      C1122   1.399       .  A
C1117      F1135   1.358       .  S
C1118      C1123   1.481       .  S
C1118      C1119   1.403       .  A
C1119      C1120   1.397       .  A
C1119      F1124   1.358       .  S
C1120      C1121   1.412       .  A
C1120      F1136   1.358       .  S
C1121      C1122   1.412       .  A
C1122      F1125   1.358       .  S
C1123      C1126   1.408       .  A
C1123      C1130   1.406       .  A
C1126      C1127   1.398       .  A
C1126      F1131   1.358       .  S
C1127      C1128   1.403       .  A
C1127      F1133   1.358       .  S
C1128      C1129   1.402       .  A
C1129      C1130   1.396       .  A
C1129      F1132   1.357       .  S
C1130      F1134   1.358       .  S
C1137      C1138   1.402       .  A
C1137      C1142   1.396       .  A
C1137      F1155   1.358       .  S
C1138      C1143   1.473       .  S
C1138      C1139   1.403       .  A
C1139      C1140   1.397       .  A
C1139      F1144   1.358       .  S
C1140      C1141   1.409       .  A
C1140      F1156   1.358       .  S
C1141      C1142   1.410       .  A
C1142      F1145   1.358       .  S
C1143      C1146   1.405       .  A
C1143      C1150   1.404       .  A
C1146      C1147   1.396       .  A
C1146      F1151   1.358       .  S
C1147      C1148   1.402       .  A
C1147      F1153   1.358       .  S
C1148      C1149   1.404       .  A
C1149      C1150   1.396       .  A
C1149      F1152   1.357       .  S
C1150      F1154   1.358       .  S
C1157      C1158   1.403       .  A
C1157      C1162   1.399       .  A
C1157      F1175   1.358       .  S
C1158      C1163   1.476       .  S
C1158      C1159   1.401       .  A
C1159      C1160   1.396       .  A
C1159      F1164   1.358       .  S
C1160      C1161   1.413       .  A
C1160      F1176   1.358       .  S
C1161      C1162   1.412       .  A
C1162      F1165   1.358       .  S
C1163      C1166   1.405       .  A
C1163      C1170   1.406       .  A
C1166      C1167   1.396       .  A
C1166      F1171   1.358       .  S
C1167      C1168   1.402       .  A
C1167      F1173   1.357       .  S
C1168      C1169   1.403       .  A
C1169      C1170   1.397       .  A
C1169      F1172   1.357       .  S
C1170      F1174   1.358       .  S
