geometry optimzed in LAMMPS
_audit_creation_date              2020-12-01 
_audit_creation_method            'lammps2cif' 
_symmetry_space_group_name_H-M    'P1' 
_symmetry_Int_Tables_number       1 
_symmetry_cell_setting            triclinic 
loop_ 
_symmetry_equiv_pos_as_xyz 
  x,y,z 
_cell_length_a                    41.69615272 
_cell_length_b                    39.16653325306304 
_cell_length_c                    68.13820567218876 
_cell_angle_alpha                 89.7282776363232 
_cell_angle_beta                  89.75287935916492 
_cell_angle_gamma                 89.75154502840937 
loop_ 
_atom_site_label 
_atom_site_type_symbol 
_atom_site_fract_x 
_atom_site_fract_y 
_atom_site_fract_z 
_atom_site_charge 
N1          N  0.43727412  0.50702101  0.49890684    -0.37000
N2          N  0.98561101  0.49812250  0.46797060    -0.57500
N3          N  0.03489955  0.01613660  0.49646595    -0.36900
N4          N  0.98687656  0.03007580  0.52626518    -0.57500
C5          C  0.41935920  0.50695536  0.48240888     0.26600
C6          C  0.42064068  0.02591945  0.51093197     0.26600
C7          C  0.05208197  0.50929163  0.48104619     0.26600
C8          C  0.05301367  0.03210549  0.51005431     0.26600
C9          C  0.45966211  0.48315957  0.45925581     0.35200
C10         C  0.01146571  0.48472794  0.45867371     0.35300
C11         C  0.46211982  0.03005094  0.53688836     0.35200
C12         C  0.01321275  0.03367560  0.53750701     0.35300
C13         C  0.38942557  0.52095215  0.48633768    -0.22200
C14         C  0.39051128  0.03365224  0.50352242    -0.22200
C15         C  0.08214302  0.52290436  0.48450491    -0.22200
C16         C  0.08252788  0.04037572  0.50180731    -0.22200
C17         C  0.46906630  0.46250913  0.44379357    -0.23300
C18         C  0.00166553  0.46433443  0.44327819    -0.23300
C19         C  0.47235444  0.03389040  0.55607247    -0.23300
C20         C  0.00437467  0.03659637  0.55707058    -0.23300
C21         C  0.42766748  0.49035721  0.46471731    -0.18600
C22         C  0.42983929  0.03062997  0.53072182    -0.18600
C23         C  0.04481288  0.03663550  0.53012809    -0.18600
C24         C  0.04370272  0.49138967  0.46381163    -0.18600
H25         H  0.36951807  0.52365352  0.47629423     0.14300
H26         H  0.37050256  0.04518689  0.51123743     0.14300
H27         H  0.10223749  0.52405888  0.47441449     0.14300
H28         H  0.10274004  0.05231339  0.50887430     0.14300
H29         H  0.45375633  0.44875158  0.43380474     0.12600
H30         H  0.01672823  0.45039176  0.43309658     0.12600
H31         H  0.45761630  0.03592916  0.56913167     0.12600
H32         H  0.01992014  0.04066649  0.56951296     0.12600
H33         H  0.45879907  0.49398933  0.50082930     0.25800
H34         H  0.01386163  0.00287513  0.49921220     0.25800
N35         N  0.03888665  0.24661626  0.50090435    -0.37000
N36         N  0.48994848  0.25825287  0.47105293    -0.57500
N37         N  0.44134467  0.25797540  0.50197363    -0.36900
N38         N  0.49016553  0.24440103  0.53158547    -0.57500
C39         C  0.05643038  0.24277401  0.48429563     0.26600
C40         C  0.05688095  0.23476007  0.51598526     0.26600
C41         C  0.42275044  0.25773072  0.48571713     0.26600
C42         C  0.42262575  0.24837061  0.51731465     0.26600
C43         C  0.01624852  0.26380658  0.46025528     0.35200
C44         C  0.46480645  0.27034391  0.46067139     0.35300
C45         C  0.01716952  0.24224269  0.54292093     0.35200
C46         C  0.46436597  0.24693828  0.54354361     0.35300
C47         C  0.08587880  0.22829458  0.48886359    -0.22200
C48         C  0.08590267  0.22257768  0.50876247    -0.22200
C49         C  0.39166695  0.24892207  0.49091289    -0.22200
C50         C  0.39162270  0.24285165  0.51073223    -0.31400
C51         C  0.00723896  0.28021598  0.44305249    -0.23300
C52         C  0.47523412  0.28390479  0.44294304    -0.23300
C53         C  0.00781481  0.24639945  0.56232224    -0.23300
C54         C  0.47410013  0.24767268  0.56294705    -0.23300
C55         C  0.04805298  0.25594160  0.46564742    -0.18600
C56         C  0.04911925  0.23773037  0.53621375    -0.18600
C57         C  0.43220078  0.24519213  0.53722577    -0.18600
C58         C  0.43246458  0.26738058  0.46653248    -0.18600
H59         H  0.10573082  0.22318616  0.47902852     0.14300
H60         H  0.10563379  0.21184846  0.51705319     0.14300
H61         H  0.37091345  0.24721482  0.48151841     0.14300
H62         H  0.37082740  0.23560712  0.51931648     0.14300
H63         H  0.02272153  0.28979438  0.43150417     0.12600
H64         H  0.46077698  0.29490687  0.43135674     0.12600
H65         H  0.02307115  0.24828167  0.57506969     0.12600
H66         H  0.45900736  0.24876653  0.57589259     0.12600
H67         H  0.01815233  0.26122650  0.50216998     0.25800
H68         H  0.46454712  0.26730930  0.50278975     0.25800
N69         N  0.27729072  0.30684260  0.40695198    -0.06500
N70         N  0.30402230  0.28876481  0.40883505    -0.58600
N71         N  0.20230272  0.32923779  0.42001871    -0.06100
N72         N  0.17671512  0.32722676  0.43123223    -0.60700
N73         N  0.20218179  0.30534086  0.40658042    -0.05700
N74         N  0.17605396  0.28639195  0.40843290    -0.58600
N75         N  0.27598183  0.33083938  0.42033839    -0.05400
N76         N  0.30163353  0.32983146  0.43151647    -0.61100
C77         C  0.31894850  0.30359298  0.42421953     0.95700
C78         C  0.16035601  0.30066886  0.42388762     0.95500
N79         N  0.19880841  0.43209379  0.40702600    -0.06700
N80         N  0.17294336  0.45142643  0.40958306    -0.59200
N81         N  0.27360563  0.40925932  0.42069335    -0.04800
N82         N  0.29819599  0.41161803  0.43256980    -0.60400
N83         N  0.27414672  0.43370798  0.40747215    -0.06700
N84         N  0.29950314  0.45342937  0.41020834    -0.59400
N85         N  0.19972101  0.40785115  0.42038852    -0.04400
N86         N  0.17475561  0.41009899  0.43223975    -0.60500
Mn87       Mn  0.23789115  0.36923394  0.42089623     1.18400
C88         C  0.15818296  0.43745070  0.42551419     0.97800
C89         C  0.31418379  0.43931073  0.42610611     0.98500
N90         N  0.20461675  0.30468234  0.36038360    -0.06700
N91         N  0.18580768  0.27905057  0.35569441    -0.63000
N92         N  0.27734703  0.32960292  0.34682203    -0.05500
N93         N  0.29611458  0.31999725  0.33212674    -0.63700
N94         N  0.27730270  0.30598058  0.36065063    -0.06200
N95         N  0.29612869  0.28032457  0.35560310    -0.63300
N96         N  0.20456954  0.32803817  0.34641551    -0.05100
N97         N  0.18587930  0.31824116  0.33188789    -0.64000
Mn98       Mn  0.24035109  0.30467061  0.38384614     1.10700
C99         C  0.17384147  0.28782493  0.33798437     0.99000
C100        C  0.30801889  0.28926882  0.33782506     0.99100
N101        N  0.27394262  0.43563652  0.36108527    -0.06200
N102        N  0.29195274  0.46202662  0.35635878    -0.61600
N103        N  0.20273724  0.41070755  0.34652869    -0.05500
N104        N  0.18464469  0.42052897  0.33164645    -0.58300
N105        N  0.20136744  0.43365669  0.36059214    -0.06800
N106        N  0.18207201  0.45897348  0.35557419    -0.61200
N107        N  0.27540407  0.41231036  0.34723078    -0.05800
N108        N  0.29448740  0.42276077  0.33287935    -0.58300
Mn109      Mn  0.23700587  0.43475787  0.38422400     1.20200
Mn110      Mn  0.24007254  0.37017600  0.34631599     1.10100
Cl111      Cl  0.23883173  0.36972470  0.38361771    -0.86300
C112        C  0.30511599  0.45364591  0.33887316     0.96000
C113        C  0.17139610  0.45044483  0.33756956     0.95800
N114        N  0.27852193  0.19629718  0.59749529    -0.06500
N115        N  0.30448623  0.21559483  0.59612525    -0.58600
N116        N  0.20356792  0.17654018  0.58274988    -0.06100
N117        N  0.17806412  0.18099607  0.57163514    -0.60700
N118        N  0.20352758  0.19848160  0.59727092    -0.05700
N119        N  0.17790903  0.21852415  0.59632232    -0.58600
N120        N  0.27788229  0.17413669  0.58312288    -0.05400
N121        N  0.30321103  0.17766849  0.57172494    -0.61100
C122        C  0.31964852  0.20361727  0.57987739     0.95700
C123        C  0.16243208  0.20732715  0.58016430     0.95500
N124        N  0.19964407  0.07236366  0.59144145    -0.06700
N125        N  0.17283660  0.05529660  0.58801589    -0.59200
N126        N  0.27584601  0.09523758  0.57996344    -0.04800
N127        N  0.30183070  0.09398868  0.56893698    -0.60400
N128        N  0.27474052  0.06890168  0.59198811    -0.06700
N129        N  0.30004719  0.04891118  0.58921737    -0.59400
N130        N  0.20203152  0.09818307  0.57915395    -0.04400
N131        N  0.17730837  0.09929252  0.56727578    -0.60500
Mn132      Mn  0.23994623  0.13602814  0.58065336     1.18400
C133        C  0.15905917  0.07268031  0.57287594     0.97800
C134        C  0.31661922  0.06496744  0.57473555     0.98500
N135        N  0.20357681  0.19224668  0.64299082    -0.06700
N136        N  0.18347985  0.21687142  0.64781912    -0.63000
N137        N  0.27564375  0.16480919  0.65640040    -0.05500
N138        N  0.29508096  0.17184167  0.67111319    -0.63700
N139        N  0.27666626  0.18958078  0.64329862    -0.06200
N140        N  0.29714845  0.21321421  0.64866089    -0.63300
N141        N  0.20266642  0.16740926  0.65605699    -0.05100
N142        N  0.18218667  0.17522211  0.67022643    -0.64000
Mn143      Mn  0.24063530  0.19508242  0.62021307     1.10700
C144        C  0.17011953  0.20608471  0.66480848     0.99000
C145        C  0.30882850  0.20195418  0.66596491     0.99100
N146        N  0.27264392  0.06082775  0.63819580    -0.06200
N147        N  0.29136337  0.03429554  0.64190924    -0.61600
N148        N  0.20055879  0.08532428  0.65282154    -0.05500
N149        N  0.18136742  0.07458792  0.66701370    -0.58300
N150        N  0.19987431  0.06385470  0.63799778    -0.06800
N151        N  0.18013829  0.03841083  0.64189490    -0.61200
N152        N  0.27333646  0.08250387  0.65292068    -0.05800
N153        N  0.29242783  0.07077784  0.66686963    -0.58300
Mn154      Mn  0.23657497  0.06538438  0.61465155     1.20200
Mn155      Mn  0.23807180  0.12499575  0.65504379     1.10100
Cl156      Cl  0.23881745  0.13028518  0.61774754    -0.86300
C157        C  0.30412303  0.04098201  0.65970079     0.96000
C158        C  0.16825934  0.04557103  0.65992785     0.95800
N159        N  0.19530124  0.99055106  0.99726046    -0.37000
N160        N  0.24360997  0.99340346  0.96609072    -0.57500
N161        N  0.29163714  0.98239328  0.99637278    -0.36900
N162        N  0.24359730  0.47892372  0.02749295    -0.57500
C163        C  0.17699671  0.99049337  0.98091664     0.26600
C164        C  0.17640844  0.48227802  0.01298426     0.26600
C165        C  0.30935454  0.97895882  0.97979283     0.26600
C166        C  0.30921184  0.47272935  0.01196114     0.26600
C167        C  0.21834113  0.00701414  0.95637024     0.35200
C168        C  0.27017928  0.00212141  0.95579253     0.35300
C169        C  0.21772031  0.48173735  0.03939529     0.35200
C170        C  0.26983281  0.47964355  0.03910748     0.35300
C171        C  0.14646859  0.97905760  0.98553525    -0.22200
C172        C  0.14584665  0.47527559  0.00608899    -0.22200
C173        C  0.33852353  0.96383891  0.98429037    -0.22200
C174        C  0.33793097  0.46017306  0.00447165    -0.22200
C175        C  0.22874742  0.02332390  0.93943992    -0.23300
C176        C  0.26167671  0.02029029  0.93909364    -0.23300
C177        C  0.22746756  0.48377689  0.05876829    -0.23300
C178        C  0.26052774  0.48283884  0.05857724    -0.23300
C179        C  0.18600373  0.00401038  0.96244823    -0.18600
C180        C  0.18548661  0.48032804  0.03301807    -0.18600
C181        C  0.30176685  0.47534657  0.03225288    -0.18600
C182        C  0.30194710  0.99406494  0.96145337    -0.18600
H183        H  0.12619421  0.97688190  0.97576104     0.14300
H184        H  0.12539281  0.46633590  0.01445379     0.14300
H185        H  0.35826176  0.95877455  0.97433870     0.14300
H186        H  0.35755684  0.44882959  0.01259265     0.14300
H187        H  0.21416979  0.03630712  0.92860049     0.12600
H188        H  0.27754978  0.03055793  0.92795041     0.12600
H189        H  0.21233165  0.48571532  0.07166389     0.12600
H190        H  0.27584307  0.48387844  0.07133520     0.12600
H191        H  0.21760528  0.00207440  0.99852266     0.25800
H192        H  0.27115830  0.99743120  0.99775192     0.25800
N193        N  0.19092778  0.25512626  0.00010355    -0.37000
N194        N  0.23711854  0.24346512  0.96872542    -0.57500
N195        N  0.28729489  0.25426904  0.99779064    -0.36900
N196        N  0.24035121  0.26826167  0.02841368    -0.57500
C197        C  0.17266059  0.25738691  0.98380221     0.26600
C198        C  0.17401798  0.26966727  0.01485231     0.26600
C199        C  0.30502882  0.25107948  0.98119402     0.26600
C200        C  0.30686094  0.26628077  0.01198283     0.26600
C201        C  0.21034185  0.23146307  0.96008156     0.35200
C202        C  0.26227375  0.22983274  0.95892629     0.35300
C203        C  0.21510389  0.26722710  0.04088412     0.35200
C204        C  0.26700102  0.26944801  0.03953479     0.35300
C205        C  0.14415239  0.27411542  0.98812518    -0.22200
C206        C  0.14502634  0.28195645  0.00773104    -0.22200
C207        C  0.33631352  0.26089429  0.98491039    -0.22200
C208        C  0.33749983  0.27039544  0.00423564    -0.22200
C209        C  0.21844400  0.21063753  0.94443939    -0.23300
C210        C  0.25145615  0.20979822  0.94361561    -0.23300
C211        C  0.22574462  0.26765315  0.06011100    -0.23300
C212        C  0.25861288  0.26998621  0.05925117    -0.23300
C213        C  0.17887878  0.23997313  0.96609874    -0.18600
C214        C  0.18275543  0.26919129  0.03488213    -0.18600
C215        C  0.29862290  0.27149110  0.03204718    -0.18600
C216        C  0.29479232  0.23589748  0.96346637    -0.18600
H217        H  0.12428349  0.27893976  0.97830519     0.14300
H218        H  0.12605906  0.29441767  0.01593788     0.14300
H219        H  0.35656450  0.26027765  0.97493435     0.14300
H220        H  0.35897297  0.27828527  0.01178769     0.14300
H221        H  0.20232417  0.19733712  0.93472999     0.12600
H222        H  0.26582792  0.19569108  0.93313780     0.12600
H223        H  0.21136073  0.26740754  0.07336383     0.12600
H224        H  0.27442810  0.27170529  0.07174311     0.12600
H225        H  0.21106031  0.23962572  0.00175962     0.25800
H226        H  0.26431591  0.24496518  0.99981616     0.25800
N227        N  0.45007880  0.18424060  0.90593372    -0.06500
N228        N  0.42369965  0.20276436  0.90825031    -0.58600
N229        N  0.52445688  0.16240493  0.92028873    -0.06100
N230        N  0.04864885  0.16358700  0.93320652    -0.60700
N231        N  0.52500049  0.18740390  0.90736166    -0.05700
N232        N  0.04985122  0.20613310  0.91125266    -0.58600
N233        N  0.45065658  0.15911048  0.91876853    -0.05400
N234        N  0.42487565  0.15993250  0.93000733    -0.61100
C235        C  0.40809665  0.18715840  0.92331636     0.95700
C236        C  0.06402479  0.19211558  0.92731310     0.95500
N237        N  0.53065711  0.06055939  0.90465362    -0.06700
N238        N  0.05721949  0.04013909  0.90740025    -0.59200
N239        N  0.45430171  0.07992027  0.91712981    -0.04800
N240        N  0.42943205  0.07479826  0.92869894    -0.60400
N241        N  0.45542377  0.05684788  0.90321676    -0.06700
N242        N  0.43098541  0.03541126  0.90513123    -0.59400
N243        N  0.52827288  0.08344591  0.91861613    -0.04400
N244        N  0.05328671  0.07934403  0.93098163    -0.60500
Mn245      Mn  0.48934914  0.12119238  0.91924875     1.18400
C246        C  0.07113165  0.05344813  0.92365561     0.97800
C247        C  0.41492363  0.04697786  0.92122676     0.98500
N248        N  0.02644239  0.19069269  0.86129449    -0.06700
N249        N  0.04356283  0.21794712  0.85688954    -0.63000
N250        N  0.45584574  0.16728788  0.84512832    -0.05500
N251        N  0.43804623  0.17771583  0.83023533    -0.63700
N252        N  0.45367304  0.18928458  0.85964553    -0.06200
N253        N  0.43408830  0.21453970  0.85493964    -0.63300
N254        N  0.02840101  0.16815109  0.84704100    -0.05100
N255        N  0.04696439  0.17991372  0.83277233    -0.64000
Mn256      Mn  0.48869796  0.18938011  0.88367940     1.10700
C257        C  0.05659159  0.21092207  0.83914168     0.99000
C258        C  0.42408042  0.20697470  0.83663848     0.99100
N259        N  0.45938941  0.06039073  0.85675845    -0.06200
N260        N  0.44048752  0.03520455  0.85137654    -0.61600
N261        N  0.03137569  0.08589563  0.84539829    -0.05500
N262        N  0.05039439  0.07763214  0.83060917    -0.58300
N263        N  0.03166592  0.06142279  0.85871173    -0.06800
N264        N  0.05109325  0.03657690  0.85320489    -0.61200
N265        N  0.45947086  0.08475644  0.84335287    -0.05800
N266        N  0.44094471  0.07612050  0.82849099    -0.58300
Mn267      Mn  0.49446046  0.05935965  0.88083979     1.20200
Mn268      Mn  0.49400938  0.12766416  0.84466858     1.10100
Cl269      Cl  0.49161915  0.12440712  0.88200277    -0.86300
C270        C  0.42875314  0.04539037  0.83382212     0.96000
C271        C  0.06281793  0.04681315  0.83562049     0.95800
N272        N  0.12150903  0.37658952  0.71884554    -0.37000
N273        N  0.10696340  0.32495677  0.74850011    -0.57500
N274        N  0.09392297  0.37744334  0.77679749    -0.36900
N275        N  0.11034660  0.42907761  0.74776960    -0.57500
C276        C  0.13312639  0.34793331  0.71032547     0.26600
C277        C  0.13605391  0.40355227  0.71011260     0.26600
C278        C  0.09659164  0.34974179  0.78865051     0.26600
C279        C  0.09701792  0.40536466  0.78818775     0.26600
C280        C  0.10623618  0.30591023  0.73207733     0.35200
C281        C  0.09322604  0.30596457  0.76280988     0.35300
C282        C  0.11436134  0.44898379  0.73171854     0.35200
C283        C  0.09806835  0.44942284  0.76188712     0.35300
C284        C  0.15515950  0.35677847  0.69587735    -0.22200
C285        C  0.15692633  0.39194419  0.69570496    -0.22200
C286        C  0.10155060  0.36021734  0.80780138    -0.22200
C287        C  0.10161075  0.39540913  0.80752626    -0.22200
C288        C  0.09163116  0.27481790  0.73589609    -0.23300
C289        C  0.08337437  0.27485137  0.75541964    -0.23300
C290        C  0.10466817  0.48216156  0.73566115    -0.23300
C291        C  0.09423092  0.48241838  0.75479070    -0.23300
C292        C  0.12279629  0.31428209  0.71463021    -0.18600
C293        C  0.12977025  0.43830260  0.71429925    -0.18600
C294        C  0.09385244  0.43947328  0.78164441    -0.18600
C295        C  0.09200418  0.31554036  0.78272414    -0.18600
H296        H  0.16840656  0.33971063  0.68635129     0.14300
H297        H  0.17185221  0.40722475  0.68607864     0.14300
H298        H  0.10432297  0.34418090  0.82066675     0.14300
H299        H  0.10455760  0.41180897  0.82012411     0.14300
H300        H  0.08822278  0.25390295  0.72579969     0.12600
H301        H  0.07206369  0.25410086  0.76333995     0.12600
H302        H  0.09443276  0.00339628  0.72142916     0.12600
H303        H  0.07544133  0.00537721  0.75844285     0.12600
H304        H  0.10230768  0.37771417  0.72862994     0.25800
H305        H  0.08640650  0.37751537  0.76225591     0.25800
N306        N  0.36132198  0.42739797  0.74896708    -0.37000
N307        N  0.34547690  0.37353537  0.72145760    -0.57500
N308        N  0.36429510  0.32350063  0.75065294    -0.36900
N309        N  0.37779357  0.37724147  0.77881437    -0.57500
C310        C  0.34488348  0.44514175  0.73515254     0.26600
C311        C  0.36262360  0.44716953  0.76520613     0.26600
C312        C  0.34976506  0.30317184  0.73742419     0.26600
C313        C  0.36733925  0.30518312  0.76740648     0.26600
C314        C  0.34299905  0.40065715  0.70921634     0.35200
C315        C  0.34473548  0.34527499  0.71015220     0.35300
C316        C  0.38893842  0.40564553  0.78767079     0.35200
C317        C  0.39068611  0.35025290  0.78847355     0.35300
C318        C  0.33546015  0.47642824  0.74276136    -0.22200
C319        C  0.34669389  0.47771597  0.76170721    -0.22200
C320        C  0.34360274  0.27155700  0.74588458    -0.22200
C321        C  0.35464906  0.27285889  0.76481344    -0.22200
C322        C  0.34050307  0.38958213  0.68998433    -0.23300
C323        C  0.34152249  0.35443792  0.69058587    -0.23300
C324        C  0.40874928  0.39659905  0.80316339    -0.23300
C325        C  0.40974785  0.36148303  0.80371092    -0.23300
C326        C  0.34033705  0.43499991  0.71541986    -0.18600
C327        C  0.38010693  0.43948640  0.78247436    -0.18600
C328        C  0.38410103  0.31566755  0.78428058    -0.18600
C329        C  0.34418108  0.31146173  0.71751950    -0.18600
H330        H  0.33203882  0.99894237  0.73227896     0.14300
H331        H  0.35235524  0.00131410  0.76886885     0.14300
H332        H  0.33287873  0.24951833  0.73904900     0.14300
H333        H  0.35410182  0.25206653  0.77532898     0.14300
H334        H  0.33760788  0.40515589  0.67694249     0.12600
H335        H  0.33955095  0.33757636  0.67811262     0.12600
H336        H  0.42113272  0.41347569  0.81308442     0.12600
H337        H  0.42293629  0.34599291  0.81413730     0.12600
H338        H  0.37448360  0.40517225  0.74660624     0.25800
H339        H  0.37530220  0.34671658  0.74767768     0.25800
N340        N  0.09491596  0.12132103  0.22328776    -0.37000
N341        N  0.11412020  0.06835494  0.25070374    -0.57500
N342        N  0.12841262  0.12001887  0.27993224    -0.36900
N343        N  0.11162801  0.17306536  0.25168089    -0.57500
C344        C  0.09571258  0.09389360  0.21128118     0.26600
C345        C  0.09481997  0.14961571  0.21180487     0.26600
C346        C  0.14194584  0.09212668  0.28832379     0.26600
C347        C  0.14084531  0.14780715  0.28878634     0.26600
C348        C  0.10015557  0.04878730  0.23690251     0.35200
C349        C  0.11809371  0.04817551  0.26664271     0.35300
C350        C  0.09641254  0.19288194  0.23833061     0.35200
C351        C  0.11426522  0.19197686  0.26811781     0.35300
C352        C  0.09594395  0.10483325  0.19190627    -0.22200
C353        C  0.09550964  0.14002680  0.19223203    -0.22200
C354        C  0.16290697  0.10223824  0.30291216    -0.22200
C355        C  0.16229487  0.13742784  0.30316486    -0.22200
C356        C  0.09542580  0.01600197  0.24404894    -0.23300
C357        C  0.10674812  0.01562425  0.26292247    -0.23300
C358        C  0.08926677  0.22449326  0.24635014    -0.23300
C359        C  0.10068714  0.22395105  0.26521914    -0.23300
C360        C  0.09405691  0.05937804  0.21743621    -0.18600
C361        C  0.09104263  0.18358241  0.21859564    -0.18600
C362        C  0.13199081  0.18210351  0.28484422    -0.18600
C363        C  0.13441822  0.05786571  0.28383912    -0.18600
H364        H  0.09597846  0.08909126  0.17889343     0.14300
H365        H  0.09501260  0.15664685  0.17950126     0.14300
H366        H  0.17707191  0.08595629  0.31242628     0.14300
H367        H  0.17590155  0.15349902  0.31293488     0.14300
H368        H  0.09577081  0.49252314  0.23402240     0.12600
H369        H  0.11537866  0.49248258  0.27071837     0.12600
H370        H  0.07751278  0.24590315  0.23926481     0.12600
H371        H  0.09966834  0.24489385  0.27551426     0.12600
H372        H  0.09048354  0.12069193  0.23829382     0.25800
H373        H  0.10929355  0.11997711  0.27021059     0.25800
N374        N  0.36304086  0.06944140  0.24951694    -0.37000
N375        N  0.34566100  0.12187404  0.27760708    -0.57500
N376        N  0.36543975  0.17332487  0.24968040    -0.36900
N377        N  0.38076268  0.12120012  0.22108031    -0.57500
C378        C  0.34626184  0.05099179  0.26285732     0.26600
C379        C  0.36482577  0.05079444  0.23286753     0.26600
C380        C  0.34870351  0.19216362  0.26279957     0.26600
C381        C  0.36682861  0.19158630  0.23282412     0.26600
C382        C  0.34499467  0.09409161  0.28942332     0.35200
C383        C  0.34653743  0.14940189  0.28948363     0.35300
C384        C  0.39360967  0.09332325  0.21247584     0.35200
C385        C  0.39497836  0.14857164  0.21270832     0.35300
C386        C  0.33717787  0.02024051  0.25457714    -0.22200
C387        C  0.34893944  0.02010219  0.23563946    -0.22200
C388        C  0.33900662  0.22258247  0.25414393    -0.22200
C389        C  0.35045761  0.22220970  0.23517016    -0.22200
C390        C  0.34554076  0.10398358  0.30892775    -0.23300
C391        C  0.34655506  0.13909902  0.30896391    -0.23300
C392        C  0.41633410  0.10296927  0.19862836    -0.23300
C393        C  0.41716873  0.13811393  0.19875973    -0.23300
C394        C  0.34127373  0.06022826  0.28271337    -0.18600
C395        C  0.38290407  0.05967425  0.21596846    -0.18600
C396        C  0.38530906  0.18260210  0.21619425    -0.18600
C397        C  0.34443343  0.18354498  0.28277578    -0.18600
H398        H  0.32463154  0.49874198  0.26333615     0.14300
H399        H  0.34615976  0.49831391  0.22681167     0.14300
H400        H  0.32561927  0.24316481  0.26091068     0.14300
H401        H  0.34768482  0.24249525  0.22446112     0.14300
H402        H  0.34483663  0.08762960  0.32176846     0.12600
H403        H  0.34677233  0.15519383  0.32182872     0.12600
H404        H  0.43027548  0.08644479  0.18914772     0.12600
H405        H  0.43181866  0.15412635  0.18937767     0.12600
H406        H  0.37598784  0.09145366  0.25242316     0.25800
H407        H  0.37878823  0.15148309  0.25284781     0.25800
N408        N  0.45185694  0.31395467  0.09326555    -0.06500
N409        N  0.42472394  0.29708480  0.09065159    -0.58600
N410        N  0.52862902  0.33311957  0.08091434    -0.06100
N411        N  0.05381250  0.32864901  0.06965819    -0.60700
N412        N  0.52653497  0.30857280  0.09408188    -0.05700
N413        N  0.05067422  0.28704672  0.09221450    -0.58600
N414        N  0.45474781  0.33802361  0.07988309    -0.05400
N415        N  0.42992272  0.33821093  0.06805665    -0.61100
C416        C  0.41123939  0.31273400  0.07483985     0.95700
C417        C  0.06742962  0.29982842  0.07681144     0.95500
N418        N  0.53198374  0.43739209  0.09434174    -0.06700
N419        N  0.05694731  0.45634911  0.09186558    -0.59200
N420        N  0.45757033  0.41653298  0.08009075    -0.04800
N421        N  0.43260574  0.42008077  0.06841335    -0.60400
N422        N  0.45710798  0.44002071  0.09381120    -0.06700
N423        N  0.43179556  0.46025233  0.09165659    -0.59400
N424        N  0.53195868  0.41307245  0.08111327    -0.04400
N425        N  0.05709609  0.41453057  0.06959271    -0.60500
Mn426      Mn  0.49349725  0.37514418  0.07987527     1.18400
C427        C  0.07289898  0.44191238  0.07662255     0.97800
C428        C  0.41689134  0.44752706  0.07565804     0.98500
N429        N  0.02402241  0.30701308  0.14021853    -0.06700
N430        N  0.04138795  0.28021414  0.14533530    -0.63000
N431        N  0.45380969  0.33316533  0.15413165    -0.05500
N432        N  0.43691294  0.32273960  0.16945177    -0.63700
N433        N  0.45224141  0.31042194  0.13999759    -0.06200
N434        N  0.43415842  0.28448461  0.14549078    -0.63300
N435        N  0.02549221  0.33072092  0.15384144    -0.05100
N436        N  0.04390898  0.32017381  0.16843819    -0.64000
Mn437      Mn  0.48854659  0.30898526  0.11663933     1.10700
C438        C  0.05421964  0.28883242  0.16280333     0.99000
C439        C  0.42455418  0.29237792  0.16389965     0.99100
N440        N  0.45686034  0.43923796  0.14046222    -0.06200
N441        N  0.43756291  0.46458300  0.14558100    -0.61600
N442        N  0.02790183  0.41371985  0.15390519    -0.05500
N443        N  0.04684593  0.42290878  0.16847152    -0.58300
N444        N  0.02868182  0.43705240  0.13994002    -0.06800
N445        N  0.04840873  0.46187364  0.14460552    -0.61200
N446        N  0.45613783  0.41492836  0.15387677    -0.05800
N447        N  0.43637680  0.42337989  0.16822159    -0.58300
Mn448      Mn  0.49388585  0.43931538  0.11713208     1.20200
Mn449      Mn  0.49144863  0.37285881  0.15432968     1.10100
Cl450      Cl  0.49186682  0.37406051  0.11708929    -0.86300
C451        C  0.42477781  0.45437349  0.16295223     0.96000
C452        C  0.05997270  0.45278552  0.16234868     0.95800
C453        C  0.38894360  0.50340637  0.17102384    -0.26700
C454        C  0.41151638  0.47904985  0.17733486    -0.14700
C455        C  0.42283058  0.48024368  0.19688260     0.35900
C456        C  0.41326540  0.00659203  0.20843965    -0.26100
C457        C  0.39220495  0.03217418  0.20197250    -0.15400
C458        C  0.38017027  0.03098462  0.18264491     0.37000
N459        N  0.35692004  0.05573912  0.17612527    -0.89600
H460        H  0.38006656  0.50230854  0.15611529     0.18100
H461        H  0.42224543  0.00755020  0.22332947     0.18100
N462        N  0.44587928  0.45571003  0.20389734    -0.88600
H463        H  0.34924814  0.05008299  0.16192584     0.35500
H464        H  0.36820382  0.07944110  0.17519652     0.40600
H465        H  0.43400080  0.43240536  0.20548293     0.40200
H466        H  0.45299949  0.96052562  0.21718042     0.35100
C467        C  0.41368424  0.23710197  0.20969207    -0.26700
C468        C  0.39508090  0.21029266  0.20233548    -0.14700
C469        C  0.38552870  0.21117398  0.18240627     0.35900
C470        C  0.39533653  0.23841429  0.17042985    -0.26100
C471        C  0.41345438  0.26558087  0.17784395    -0.15400
C472        C  0.42259274  0.26496411  0.19783087     0.37000
N473        N  0.44162964  0.29190054  0.20596426    -0.89600
H474        H  0.42098667  0.23640066  0.22494018     0.18100
H475        H  0.38822443  0.23859845  0.15514624     0.18100
N476        N  0.36514400  0.18573689  0.17390029    -0.88600
H477        H  0.44815929  0.28613545  0.22040759     0.35500
H478        H  0.42706017  0.31364617  0.20675351     0.40600
H479        H  0.35644777  0.16848720  0.18430793     0.40200
H480        H  0.37887763  0.17192808  0.16377979     0.35100
C481        C  0.10298433  0.48172145  0.18102054    -0.26700
C482        C  0.07046855  0.47918530  0.17622559    -0.14700
C483        C  0.04835926  0.50318281  0.18380063     0.35900
C484        C  0.05339094  0.02788667  0.19823587    -0.26100
C485        C  0.08581869  0.03275633  0.20278558    -0.15400
C486        C  0.10933621  0.01103116  0.19431430     0.37000
N487        N  0.14302616  0.01473184  0.19815077    -0.89600
H488        H  0.12000200  0.46361015  0.17492855     0.18100
H489        H  0.03545407  0.04430330  0.20490387     0.18100
N490        N  0.01486570  0.50088247  0.17902448    -0.88600
H491        H  0.15067519  0.99279406  0.20560512     0.35500
H492        H  0.14765346  0.03540718  0.20729696     0.40600
H493        H  0.50681634  0.48897225  0.17414807     0.40200
H494        H  0.50160535  0.49773957  0.19797213     0.35100
C495        C  0.10233050  0.23759559  0.20017918    -0.26700
C496        C  0.08105657  0.21071366  0.20436241    -0.14700
C497        C  0.05080708  0.21019396  0.19496998     0.35900
C498        C  0.04321967  0.23573075  0.18128516    -0.26100
C499        C  0.06443286  0.26257028  0.17713365    -0.15400
C500        C  0.09426369  0.26376946  0.18690305     0.37000
N501        N  0.11729100  0.29035004  0.18334942    -0.89600
H502        H  0.12548964  0.23821706  0.20733366     0.18100
H503        H  0.02002366  0.23507288  0.17416369     0.18100
N504        N  0.02678504  0.18498451  0.19932672    -0.88600
H505        H  0.12002718  0.30384613  0.19643206     0.35500
H506        H  0.10928607  0.30785056  0.17284765     0.40600
H507        H  0.03337775  0.16897925  0.21091243     0.40200
H508        H  0.52156544  0.17037792  0.18804616     0.35100
C509        C  0.10068609  0.01153324  0.81602403    -0.26700
C510        C  0.06910826  0.02111127  0.82042997    -0.14700
C511        C  0.04332158  0.00514483  0.81080757     0.35900
C512        C  0.05475624  0.47245565  0.80133647    -0.26100
C513        C  0.08687591  0.46641501  0.79627884    -0.15400
C514        C  0.11124485  0.48722408  0.80423362     0.37000
N515        N  0.14464521  0.48226623  0.79967702    -0.89600
H516        H  0.12041047  0.02383631  0.82346095     0.18100
H517        H  0.03620447  0.45671109  0.79498995     0.18100
N518        N  0.51215712  0.01698765  0.81527026    -0.88600
H519        H  0.15246303  0.50384975  0.79198053     0.35500
H520        H  0.14837240  0.46136693  0.79049066     0.40600
H521        H  0.50724671  0.01043317  0.82985776     0.40200
H522        H  0.49615140  0.00305787  0.80671238     0.35100
C523        C  0.09445013  0.23463842  0.81427297    -0.26700
C524        C  0.06617042  0.23827433  0.82528681    -0.14700
C525        C  0.04664817  0.26748066  0.82248222     0.35900
C526        C  0.05607748  0.29262251  0.80889752    -0.26100
C527        C  0.08433843  0.28908663  0.79787039    -0.15400
C528        C  0.10396286  0.25997348  0.80072390     0.37000
N529        N  0.13326418  0.25620351  0.78973960    -0.89600
H530        H  0.10922431  0.21209393  0.81637005     0.18100
H531        H  0.04090082  0.31477298  0.80649723     0.18100
N532        N  0.01682151  0.27101959  0.83297647    -0.88600
H533        H  0.14477864  0.23330850  0.79344666     0.35500
H534        H  0.14858059  0.27592563  0.79389866     0.40600
H535        H  0.49853573  0.24802760  0.82528812     0.40200
H536        H  0.49811539  0.29080822  0.82511539     0.35100
C537        C  0.37848951  0.46990149  0.81489878    -0.26700
C538        C  0.38991493  0.46834093  0.79549905    -0.14700
C539        C  0.41113204  0.49384511  0.78867525     0.35900
C540        C  0.42651652  0.01991234  0.80042202    -0.26100
C541        C  0.41486922  0.02084808  0.81977586    -0.15400
C542        C  0.38878402  0.49563944  0.82780318     0.37000
N543        N  0.37710203  0.49655083  0.84767452    -0.89600
H544        H  0.36184349  0.45062847  0.82003852     0.18100
H545        H  0.44407849  0.03854043  0.79566836     0.18100
N546        N  0.42315420  0.49270243  0.76887827    -0.88600
H547        H  0.36120792  0.47643999  0.85029008     0.35500
H548        H  0.36664466  0.01997496  0.84714854     0.40600
H549        H  0.43706076  0.47055459  0.76750491     0.40200
H550        H  0.44690294  0.01216320  0.76572698     0.35100
C551        C  0.37739674  0.28171802  0.81511781    -0.26700
C552        C  0.39520216  0.28853999  0.79805409    -0.14700
C553        C  0.42201656  0.26800081  0.79341198     0.35900
C554        C  0.43050545  0.24092441  0.80598708    -0.26100
C555        C  0.41282022  0.23411873  0.82313484    -0.15400
C556        C  0.38607808  0.25479464  0.82781583     0.37000
N557        N  0.36725628  0.24768896  0.84507235    -0.89600
H558        H  0.35652076  0.29728229  0.81839412     0.18100
H559        H  0.45138127  0.22544359  0.80257871     0.18100
N560        N  0.44079844  0.27513627  0.77613250    -0.88600
H561        H  0.34748979  0.26415755  0.84582587     0.35500
H562        H  0.38137152  0.25306122  0.85729975     0.40600
H563        H  0.42656909  0.27013960  0.76389993     0.40200
H564        H  0.46043111  0.25850103  0.77525509     0.35100
C565        C  0.13094798  0.24952556  0.04935839    -0.26700
C566        C  0.15641741  0.27294958  0.04961174    -0.14700
C567        C  0.15381536  0.30224836  0.06135056     0.35900
C568        C  0.12528972  0.30853547  0.07173476    -0.26100
C569        C  0.09876298  0.28694350  0.06992694    -0.15400
C570        C  0.10189048  0.25642911  0.05904049     0.37000
N571        N  0.07587085  0.23286520  0.05658093    -0.89600
H572        H  0.13283701  0.22689370  0.04032017     0.18100
H573        H  0.12321049  0.33114412  0.08066359     0.18100
N574        N  0.17939937  0.32652098  0.06181225    -0.88600
H575        H  0.06965303  0.23302477  0.04172886     0.35500
H576        H  0.05547314  0.24035316  0.06438293     0.40600
H577        H  0.17131332  0.34947449  0.05574607     0.40200
H578        H  0.18556173  0.33072178  0.07645540     0.35100
C579        C  0.33723704  0.31508142  0.04251212    -0.26700
C580        C  0.32468224  0.28239911  0.04547856    -0.14700
C581        C  0.33905806  0.26047166  0.05957062     0.35900
C582        C  0.36619215  0.27169454  0.06984069    -0.26100
C583        C  0.38014675  0.30355587  0.06575470    -0.15400
C584        C  0.36513933  0.32548865  0.05197399     0.37000
N585        N  0.37854824  0.35798419  0.04690122    -0.89600
H586        H  0.32632987  0.33197101  0.03176263     0.18100
H587        H  0.37740950  0.25456509  0.08031690     0.18100
N588        N  0.32786540  0.22635048  0.06322590    -0.88600
H589        H  0.36077232  0.37655332  0.04884029     0.35500
H590        H  0.38440363  0.35763496  0.03196670     0.40600
H591        H  0.30869003  0.22001969  0.05418666     0.40200
H592        H  0.31941630  0.22537291  0.07768848     0.35100
C593        C  0.12932733  0.20555852  0.96503826    -0.26700
C594        C  0.15056229  0.22723850  0.95507309    -0.14700
C595        C  0.14303426  0.23836188  0.93590466     0.35900
C596        C  0.11459620  0.22679085  0.92695742    -0.26100
C597        C  0.09336194  0.20499094  0.93704378    -0.15400
C598        C  0.10070451  0.19500879  0.95646269     0.37000
N599        N  0.07859317  0.17525734  0.96793223    -0.89600
H600        H  0.13460705  0.19753947  0.97993777     0.18100
H601        H  0.10900524  0.23482673  0.91212418     0.18100
N602        N  0.16402257  0.26154743  0.92576013    -0.88600
H603        H  0.07210645  0.18957397  0.98025288     0.35500
H604        H  0.09045737  0.15334128  0.97288608     0.40600
H605        H  0.16410412  0.28445616  0.93357889     0.40200
H606        H  0.15506110  0.26724278  0.91181342     0.35100
C607        C  0.33120265  0.18938283  0.95356667    -0.26700
C608        C  0.32026383  0.22265706  0.95015388    -0.14700
C609        C  0.33678990  0.24367414  0.93651351     0.35900
C610        C  0.36487009  0.23125389  0.92747104    -0.26100
C611        C  0.37681171  0.19841118  0.93171371    -0.15400
C612        C  0.35908497  0.17706631  0.94451053     0.37000
N613        N  0.36927887  0.14281719  0.94853967    -0.89600
H614        H  0.31861476  0.17320728  0.96398173     0.18100
H615        H  0.37795424  0.24787213  0.91754904     0.18100
N616        N  0.32665066  0.27800971  0.93215692    -0.88600
H617        H  0.35071940  0.12643400  0.94452829     0.35500
H618        H  0.37275010  0.14034609  0.96367259     0.40600
H619        H  0.30549875  0.28425501  0.93958361     0.40200
H620        H  0.32127720  0.27914842  0.91719307     0.35100
C621        C  0.10933683  0.48775281  0.06399612    -0.26700
C622        C  0.10424909  0.45332203  0.06876104    -0.14700
C623        C  0.12806934  0.42916720  0.06411582     0.35900
C624        C  0.15562021  0.43902388  0.05374899    -0.26100
C625        C  0.15971335  0.47289286  0.04764919    -0.15400
C626        C  0.13672808  0.49776768  0.05317775     0.37000
N627        N  0.14092471  0.53280874  0.04740446    -0.89600
H628        H  0.09105540  0.50643776  0.06764572     0.18100
H629        H  0.17312541  0.41981137  0.04957316     0.18100
N630        N  0.12399966  0.39431088  0.06971881    -0.88600
H631        H  0.12225567  0.54787561  0.05297635     0.35500
H632        H  0.13919121  0.53417562  0.03213098     0.40600
H633        H  0.14371232  0.38722252  0.07826173     0.40200
H634        H  0.12386779  0.37971644  0.05691288     0.35100
C635        C  0.38352366  0.48735957  0.05592567    -0.26700
C636        C  0.38528030  0.45873905  0.06826713    -0.14700
C637        C  0.35781415  0.43834736  0.07111055     0.35900
C638        C  0.33002506  0.44500288  0.05996438    -0.26100
C639        C  0.32896319  0.47230058  0.04651718    -0.15400
C640        C  0.35551705  0.49452168  0.04523999     0.37000
N641        N  0.35448498  0.52366156  0.03246083    -0.89600
H642        H  0.40445046  0.50332202  0.05386340     0.18100
H643        H  0.30958871  0.42814039  0.06123771     0.18100
N644        N  0.35819193  0.41118089  0.08539976    -0.88600
H645        H  0.37318053  0.52140474  0.02226131     0.35500
H646        H  0.35866889  0.54541776  0.04088255     0.40600
H647        H  0.37546828  0.39321249  0.08124746     0.40200
H648        H  0.33616483  0.39852102  0.08562861     0.35100
C649        C  0.11683674  0.01145312  0.92598079    -0.26700
C650        C  0.10241400  0.04214626  0.93218260    -0.14700
C651        C  0.11780866  0.06132879  0.94692655     0.35900
C652        C  0.14611557  0.04913040  0.95551655    -0.26100
C653        C  0.15971390  0.01790426  0.94992927    -0.15400
C654        C  0.14510186  0.99892657  0.93477256     0.37000
N655        N  0.15568660  0.46698565  0.93029663    -0.89600
H656        H  0.10397905  0.49671802  0.91597690     0.18100
H657        H  0.15698899  0.06364358  0.96723779     0.18100
N658        N  0.10469858  0.09312446  0.95352007    -0.88600
H659        H  0.13848076  0.44908484  0.93460179     0.35500
H660        H  0.17678947  0.46071418  0.93768911     0.40600
H661        H  0.12196205  0.11205926  0.95130057     0.40200
H662        H  0.10029544  0.09106861  0.96859878     0.35100
C663        C  0.34257149  0.98993290  0.93399506    -0.26700
C664        C  0.32932007  0.00819265  0.94983959    -0.14700
C665        C  0.34371601  0.03916258  0.95557090     0.35900
C666        C  0.37124101  0.05046136  0.94586836    -0.26100
C667        C  0.38508100  0.03242006  0.93016586    -0.15400
C668        C  0.37033908  0.00176066  0.92402445     0.37000
N669        N  0.38357510  0.98259280  0.90796875    -0.89600
H670        H  0.33159769  0.96610534  0.92969034     0.18100
H671        H  0.38201903  0.07387876  0.95092648     0.18100
N672        N  0.33114788  0.06007171  0.97116067    -0.88600
H673        H  0.36932594  0.96133867  0.90500330     0.35500
H674        H  0.40584899  0.97308340  0.91244374     0.40600
H675        H  0.30960650  0.05085289  0.97686893     0.40200
H676        H  0.34780815  0.05970061  0.98258367     0.35100
C677        C  0.16961513  0.01293597  0.69111375    -0.26700
C678        C  0.15492256  0.01860887  0.67286831    -0.14700
C679        C  0.12952876  0.99698714  0.66701608     0.35900
C680        C  0.12316868  0.47014731  0.68290256    -0.26100
C681        C  0.14069960  0.46507231  0.70021019    -0.15400
C682        C  0.16650946  0.48717209  0.70450009     0.37000
N683        N  0.18633567  0.48291794  0.72158441    -0.89600
H684        H  0.18946661  0.02885193  0.69559086     0.18100
H685        H  0.10330228  0.45336919  0.67964133     0.18100
N686        N  0.11272416  0.00146400  0.64877495    -0.88600
H687        H  0.20981041  0.47852646  0.71672416     0.35500
H688        H  0.17992838  0.46138197  0.72973617     0.40600
H689        H  0.12065482  0.02289105  0.64106573     0.40200
H690        H  0.08863926  0.00625963  0.65215071     0.35100
C691        C  0.13450350  0.25584931  0.67046124    -0.26700
C692        C  0.15491734  0.23073886  0.67838854    -0.14700
C693        C  0.16360762  0.23257123  0.69835243     0.35900
C694        C  0.15301047  0.26038100  0.70958245    -0.26100
C695        C  0.13283429  0.28565735  0.70162984    -0.15400
C696        C  0.12277735  0.28286081  0.68189098     0.37000
N697        N  0.10045715  0.30635993  0.67304970    -0.89600
H698        H  0.12764228  0.25449188  0.65515581     0.18100
H699        H  0.16055108  0.26246461  0.72473334     0.18100
N700        N  0.18424773  0.20718795  0.70697719    -0.88600
H701        H  0.11276997  0.32004509  0.66220093     0.35500
H702        H  0.09154936  0.32402526  0.68312553     0.40600
H703        H  0.17123993  0.18445709  0.70781137     0.40200
H704        H  0.18988244  0.21360777  0.72142765     0.35100
C705        C  0.29855799  0.46327582  0.69475868    -0.26700
C706        C  0.33060293  0.46164711  0.70087087    -0.14700
C707        C  0.35269602  0.48607084  0.69379772     0.35900
C708        C  0.34788958  0.00599593  0.67452883    -0.26100
C709        C  0.31504338  0.01321527  0.67282631    -0.15400
C710        C  0.29266834  0.99409364  0.68385708     0.37000
N711        N  0.25893604  0.00136271  0.68228294    -0.89600
H712        H  0.28165108  0.44467233  0.70038782     0.18100
H713        H  0.36492844  0.02066784  0.66593962     0.18100
N714        N  0.38575184  0.48434176  0.69965693    -0.88600
H715        H  0.24576555  0.98549849  0.69167115     0.35500
H716        H  0.25186052  0.99538413  0.66801113     0.40600
H717        H  0.38678571  0.48958521  0.71466167     0.40200
H718        H  0.39903311  0.50343215  0.69262603     0.35100
C719        C  0.35050785  0.23803050  0.68129468    -0.26700
C720        C  0.31855591  0.22718761  0.68063996    -0.14700
C721        C  0.29508223  0.24424073  0.69186361     0.35900
C722        C  0.30378787  0.27213426  0.70344283    -0.26100
C723        C  0.33570944  0.28309572  0.70412652    -0.15400
C724        C  0.35944757  0.26562491  0.69323574     0.37000
N725        N  0.39232510  0.27632753  0.69416768    -0.89600
H726        H  0.36834068  0.22523164  0.67231338     0.18100
H727        H  0.28562357  0.28522309  0.71203305     0.18100
N728        N  0.26222878  0.23374132  0.69111366    -0.88600
H729        H  0.40669413  0.26107363  0.68511622     0.35500
H730        H  0.40024341  0.27220150  0.70852640     0.40600
H731        H  0.24844292  0.25446685  0.68626250     0.40200
H732        H  0.25484362  0.22760880  0.70537517     0.35100
C733        C  0.17697448  0.98126357  0.30625629    -0.26700
C734        C  0.16134456  0.47718441  0.32353859    -0.14700
C735        C  0.13290388  0.49657478  0.32617708     0.35900
C736        C  0.12593804  0.52320358  0.31299596    -0.26100
C737        C  0.14419835  0.03045313  0.29774108    -0.15400
C738        C  0.17002339  0.00838993  0.29340281     0.37000
N739        N  0.18968161  0.01431384  0.27633675    -0.89600
H740        H  0.19724334  0.96471829  0.30312660     0.18100
H741        H  0.10393578  0.53771283  0.31479780     0.18100
N742        N  0.11055065  0.49000107  0.34187770    -0.88600
H743        H  0.20858609  0.99671485  0.27578531     0.35500
H744        H  0.17569653  0.00988220  0.26392918     0.40600
H745        H  0.11774001  0.46939457  0.35058436     0.40200
H746        H  0.08877135  0.48298274  0.33554254     0.35100
C747        C  0.17436774  0.26024455  0.30526440    -0.26700
C748        C  0.16157167  0.26174644  0.32431855    -0.14700
C749        C  0.13916020  0.23675083  0.33035790     0.35900
C750        C  0.12992205  0.21119915  0.31726284    -0.26100
C751        C  0.14312781  0.20940588  0.29831718    -0.15400
C752        C  0.16589695  0.23417945  0.29231023     0.37000
N753        N  0.18170887  0.23317964  0.27351645    -0.89600
H754        H  0.19215327  0.27871725  0.30060281     0.18100
H755        H  0.11236187  0.19247193  0.32191397     0.18100
N756        N  0.12493779  0.23703442  0.34953636    -0.88600
H757        H  0.17382780  0.25430727  0.26540560     0.35500
H758        H  0.17592645  0.21139241  0.26556501     0.40600
H759        H  0.11427643  0.26090972  0.35180228     0.40200
H760        H  0.14290860  0.23333815  0.35997193     0.35100
C761        C  0.29233450  0.50578541  0.31970846    -0.26700
C762        C  0.31470460  0.48036256  0.32474649    -0.14700
C763        C  0.34557624  0.48089073  0.31634999     0.35900
C764        C  0.35263693  0.00619279  0.30116149    -0.26100
C765        C  0.33143294  0.03322977  0.29701197    -0.15400
C766        C  0.30120944  0.03433003  0.30639837     0.37000
N767        N  0.27897802  0.06146972  0.30204043    -0.89600
H768        H  0.26845954  0.50497254  0.32605376     0.18100
H769        H  0.37585101  0.00551927  0.29396136     0.18100
N770        N  0.36847506  0.45474599  0.32130586    -0.88600
H771        H  0.25790679  0.05865185  0.31025611     0.35500
H772        H  0.27251754  0.05927414  0.28729173     0.40600
H773        H  0.37360371  0.45703324  0.33624778     0.40200
H774        H  0.39004091  0.45871076  0.31376224     0.35100
C775        C  0.30587083  0.20961424  0.30649051    -0.26700
C776        C  0.33563316  0.21109402  0.29689435    -0.14700
C777        C  0.35610833  0.23912182  0.30028446     0.35900
C778        C  0.34646805  0.26491615  0.31343509    -0.26100
C779        C  0.31702635  0.26287389  0.32336219    -0.15400
C780        C  0.29624833  0.23528954  0.31959068     0.37000
N781        N  0.26526084  0.23371185  0.32891031    -0.89600
H782        H  0.28995220  0.18846414  0.30354416     0.18100
H783        H  0.36215921  0.28631776  0.31622807     0.18100
N784        N  0.38655631  0.24115801  0.29037997    -0.88600
H785        H  0.25298612  0.21176684  0.32462344     0.35500
H786        H  0.25177907  0.25452807  0.32386781     0.40600
H787        H  0.40059264  0.22061807  0.29520500     0.40200
H788        H  0.39862891  0.26340283  0.29436048     0.35100
C789        C  0.07568760  0.20780266  0.56459039    -0.26700
C790        C  0.07591007  0.23442143  0.55070087    -0.14700
C791        C  0.10315891  0.25562955  0.54938273     0.35900
C792        C  0.13060607  0.24787364  0.56041390    -0.26100
C793        C  0.13106989  0.21985311  0.57323096    -0.15400
C794        C  0.10263832  0.20085664  0.57626248     0.37000
N795        N  0.10056030  0.17380402  0.59055746    -0.89600
H796        H  0.05481278  0.19155926  0.56593526     0.18100
H797        H  0.15218886  0.26274944  0.55817207     0.18100
N798        N  0.10350687  0.28413216  0.53612749    -0.88600
H799        H  0.08265175  0.18053304  0.60062676     0.35500
H800        H  0.12170767  0.17153881  0.59861251     0.40600
H801        H  0.10816856  0.30612061  0.54424654     0.40200
H802        H  0.12245352  0.28067321  0.52621474     0.35100
C803        C  0.39071232  0.25771390  0.56302008    -0.26700
C804        C  0.40738622  0.23369746  0.55154287    -0.14700
C805        C  0.39709492  0.19938223  0.55149098     0.35900
C806        C  0.36936502  0.19041516  0.56173657    -0.26100
C807        C  0.35147165  0.21451791  0.57234836    -0.15400
C808        C  0.36296662  0.24832963  0.57372044     0.37000
N809        N  0.34558954  0.27335708  0.58491723    -0.89600
H810        H  0.39863358  0.28402454  0.56296969     0.18100
H811        H  0.36112747  0.16431201  0.56079137     0.18100
N812        N  0.41322995  0.17325996  0.54039650    -0.88600
H813        H  0.35651602  0.29724512  0.58363701     0.35500
H814        H  0.34732548  0.26634760  0.59970133     0.40600
H815        H  0.43453521  0.18182040  0.53403112     0.40200
H816        H  0.39804918  0.16602028  0.52898448     0.35100
C817        C  0.08362655  0.30122746  0.45351212    -0.26700
C818        C  0.07448829  0.26702963  0.45253005    -0.14700
C819        C  0.09108180  0.24445565  0.43997640     0.35900
C820        C  0.11848445  0.25616693  0.42983423    -0.26100
C821        C  0.12890193  0.29002030  0.43189177    -0.15400
C822        C  0.11015141  0.31322347  0.44299977     0.37000
N823        N  0.11814715  0.34888527  0.44370139    -0.89600
H824        H  0.07007536  0.31857350  0.46276331     0.18100
H825        H  0.13230616  0.23859980  0.42090114     0.18100
N826        N  0.08003298  0.21002414  0.43755159    -0.88600
H827        H  0.10191325  0.36219626  0.45258405     0.35500
H828        H  0.11552505  0.35882626  0.42952158     0.40600
H829        H  0.08227386  0.19726871  0.45096687     0.40200
H830        H  0.09466875  0.19698653  0.42756259     0.35100
C831        C  0.39934651  0.31018215  0.44913293    -0.26700
C832        C  0.40694184  0.27570924  0.45211234    -0.14700
C833        C  0.38798246  0.25022000  0.44316321     0.35900
C834        C  0.36003875  0.25991566  0.43312826    -0.26100
C835        C  0.35108488  0.29436091  0.43158803    -0.15400
C836        C  0.37186985  0.31981306  0.43867546     0.37000
N837        N  0.36471738  0.35534173  0.43547943    -0.89600
H838        H  0.41435096  0.32960720  0.45561875     0.18100
H839        H  0.34445421  0.24032182  0.42736997     0.18100
N840        N  0.39532906  0.21442139  0.44490749    -0.88600
H841        H  0.36519162  0.35976467  0.42033399     0.35500
H842        H  0.38262294  0.37065532  0.44147790     0.40600
H843        H  0.41677622  0.21034526  0.45241955     0.40200
H844        H  0.39903962  0.20504333  0.43073546     0.35100
C845        C  0.08170912  0.08018760  0.54337775    -0.26700
C846        C  0.07090576  0.04648371  0.54377017    -0.14700
C847        C  0.08737796  0.02190923  0.55512530     0.35900
C848        C  0.11533553  0.03140108  0.56527038    -0.26100
C849        C  0.12764619  0.06465924  0.56370229    -0.15400
C850        C  0.11010950  0.08937701  0.55268067     0.37000
N851        N  0.12060161  0.12389295  0.55019842    -0.89600
H852        H  0.06904810  0.09905570  0.53462037     0.18100
H853        H  0.12988487  0.50881712  0.57323406     0.18100
N854        N  0.07857722  0.48181053  0.55538433    -0.88600
H855        H  0.14179630  0.12404845  0.54197289     0.35500
H856        H  0.12475659  0.13431135  0.56400244     0.40600
H857        H  0.05653173  0.47974415  0.56264002     0.40200
H858        H  0.09494771  0.46704766  0.56336960     0.35100
C859        C  0.38208710  0.01281718  0.55016004    -0.26700
C860        C  0.40408746  0.03860798  0.54521881    -0.14700
C861        C  0.39892111  0.07212103  0.55227799     0.35900
C862        C  0.37099636  0.07930954  0.56294745    -0.26100
C863        C  0.34796772  0.05412082  0.56672438    -0.15400
C864        C  0.35391640  0.02027148  0.56080086     0.37000
N865        N  0.32920675  0.48869316  0.56858524    -0.89600
H866        H  0.38481381  0.48068373  0.54881914     0.18100
H867        H  0.36665812  0.10523884  0.56774467     0.18100
N868        N  0.42032853  0.09989547  0.54807348    -0.88600
H869        H  0.33791072  0.46474317  0.56434976     0.35500
H870        H  0.30998666  0.00019080  0.55670597     0.40600
H871        H  0.43923802  0.09282178  0.53889560     0.40200
H872        H  0.43035992  0.10764291  0.56135752     0.35100
C873        C  0.08989117  0.45185540  0.46203647    -0.26700
C874        C  0.07074669  0.47600695  0.45228454    -0.14700
C875        C  0.08001407  0.48707785  0.43324746     0.35900
C876        C  0.10827287  0.47381875  0.42470465    -0.26100
C877        C  0.12801947  0.45044998  0.43482544    -0.15400
C878        C  0.11867992  0.43973457  0.45388933     0.37000
N879        N  0.13893579  0.41757822  0.46534291    -0.89600
H880        H  0.08303844  0.44371404  0.47669122     0.18100
H881        H  0.11511866  0.48239669  0.41014335     0.18100
N882        N  0.06229866  0.51249640  0.42247900    -0.88600
H883        H  0.12810110  0.41145837  0.47876663     0.35500
H884        H  0.15970727  0.43119574  0.46869032     0.40600
H885        H  0.04276045  0.52171587  0.43048338     0.40200
H886        H  0.05308723  0.50077086  0.40996591     0.35100
C887        C  0.36212814  0.47777208  0.42639732    -0.26700
C888        C  0.34410220  0.45176108  0.43544122    -0.14700
C889        C  0.35502253  0.43767524  0.45345018     0.35900
C890        C  0.38350143  0.44955557  0.46168597    -0.26100
C891        C  0.40081865  0.47620305  0.45304965    -0.15400
C892        C  0.39020973  0.49043444  0.43506272     0.37000
N893        N  0.40646579  0.51832066  0.42557213    -0.89600
H894        H  0.35409372  0.48880548  0.41265098     0.18100
H895        H  0.39160043  0.43901322  0.47556020     0.18100
N896        N  0.33688230  0.41199362  0.46373309    -0.88600
H897        H  0.41511879  0.50945764  0.41209541     0.35500
H898        H  0.42635992  0.52625291  0.43355424     0.40600
H899        H  0.31587466  0.42361281  0.46889206     0.40200
H900        H  0.34917481  0.40325993  0.47613659     0.35100
N901        N  0.43868010  0.01101344  0.49676995    -0.37000
N902        N  0.98644139  0.99914017  0.46761185    -0.57500
N903        N  0.03400780  0.51143984  0.49754776    -0.36900
N904        N  0.98587659  0.52526698  0.52725448    -0.57500
C905        C  0.42029289  0.00904505  0.48050891     0.26600
C906        C  0.41898951  0.52084532  0.51331197     0.26600
C907        C  0.05263296  0.01398137  0.47982417     0.26600
C908        C  0.05230847  0.52619809  0.51149810     0.26600
C909        C  0.46035356  0.98316402  0.45792553     0.35200
C910        C  0.01257702  0.98608490  0.45844738     0.35300
C911        C  0.45999218  0.52322062  0.53958656     0.35200
C912        C  0.01204420  0.52799195  0.53869317     0.35300
C913        C  0.39028581  0.02295772  0.48434865    -0.22200
C914        C  0.38919457  0.52977922  0.50582336    -0.22200
C915        C  0.08222664  0.02901572  0.48277081    -0.22200
C916        C  0.08232281  0.53353474  0.50366554    -0.22200
C917        C  0.46960036  0.96077094  0.44325068    -0.23300
C918        C  0.00324346  0.96401791  0.44372259    -0.23300
C919        C  0.46999795  0.52682304  0.55883458    -0.23300
C920        C  0.00294973  0.53050148  0.55823383    -0.23300
C921        C  0.42838738  0.99098550  0.46323476    -0.18600
C922        C  0.42779437  0.52393232  0.53326835    -0.18600
C923        C  0.04370753  0.53086663  0.53148580    -0.18600
C924        C  0.04462049  0.99457951  0.46307955    -0.18600
H925        H  0.37001982  0.02435511  0.47449547     0.14300
H926        H  0.36913119  0.54097454  0.51364948     0.14300
H927        H  0.10201866  0.03047335  0.47246931     0.14300
H928        H  0.10270813  0.54446663  0.51108976     0.14300
H929        H  0.45418229  0.94579194  0.43392809     0.12600
H930        H  0.01860957  0.94985844  0.43381012     0.12600
H931        H  0.45509101  0.52835797  0.57184796     0.12600
H932        H  0.01838673  0.53382930  0.57080352     0.12600
H933        H  0.46039288  0.99846356  0.49886781     0.25800
H934        H  0.01233988  0.49913147  0.49985231     0.25800
N935        N  0.03810694  0.74380218  0.50075030    -0.37000
N936        N  0.48928609  0.75038519  0.46962499    -0.57500
N937        N  0.44061405  0.75097838  0.50047910    -0.36900
N938        N  0.48928322  0.74032532  0.53052579    -0.57500
C939        C  0.05547868  0.73753633  0.48434585     0.26600
C940        C  0.05540036  0.73213750  0.51616129     0.26600
C941        C  0.42218425  0.74950822  0.48418890     0.26600
C942        C  0.42206271  0.74137945  0.51589573     0.26600
C943        C  0.01684849  0.75862599  0.45950666     0.35200
C944        C  0.46408723  0.76212659  0.45910551     0.35300
C945        C  0.01601073  0.74354857  0.54270503     0.35200
C946        C  0.46335604  0.74402216  0.54225427     0.35300
C947        C  0.08399083  0.72147442  0.48932475    -0.22200
C948        C  0.08371434  0.71752311  0.50936902    -0.22200
C949        C  0.39141361  0.73953301  0.48936533    -0.22200
C950        C  0.39140634  0.73409887  0.50928375    -0.31400
C951        C  0.00880629  0.77406701  0.44185112    -0.23300
C952        C  0.47462288  0.77561607  0.44138810    -0.23300
C953        C  0.00648311  0.74880931  0.56197725    -0.23300
C954        C  0.47286966  0.74756015  0.56159131    -0.23300
C955        C  0.04831743  0.75053876  0.46552492    -0.18600
C956        C  0.04784401  0.73751885  0.53621986    -0.18600
C957        C  0.43135616  0.74059132  0.53591239    -0.18600
C958        C  0.43166716  0.75963517  0.46505869    -0.18600
H959        H  0.10344194  0.71429583  0.47961295     0.14300
H960        H  0.10281699  0.70635833  0.51801958     0.14300
H961        H  0.37090352  0.73667889  0.47986082     0.14300
H962        H  0.37084607  0.72634541  0.51793935     0.14300
H963        H  0.02492010  0.78228638  0.43027969     0.12600
H964        H  0.46015362  0.78648480  0.42976358     0.12600
H965        H  0.02162157  0.75078862  0.57477447     0.12600
H966        H  0.45760087  0.75015156  0.57438841     0.12600
H967        H  0.01837417  0.76005113  0.50155748     0.25800
H968        H  0.46335434  0.76156905  0.50125024     0.25800
N969        N  0.27672919  0.80676841  0.40638130    -0.06500
N970        N  0.30335264  0.78846374  0.40818446    -0.58600
N971        N  0.20183995  0.82942186  0.41971237    -0.06100
N972        N  0.17697808  0.82667883  0.43150096    -0.60700
N973        N  0.20152059  0.80547570  0.40629537    -0.05700
N974        N  0.17598156  0.78579181  0.40876921    -0.58600
N975        N  0.27572827  0.83079954  0.41976103    -0.05400
N976        N  0.30151460  0.82952992  0.43085191    -0.61100
C977        C  0.31862774  0.80313055  0.42350586     0.95700
C978        C  0.16079715  0.79962019  0.42457427     0.95500
N979        N  0.19888859  0.93258103  0.40637287    -0.06700
N980        N  0.17332052  0.95234039  0.40889682    -0.59200
N981        N  0.27362246  0.90944368  0.42002465    -0.04800
N982        N  0.29834475  0.91179881  0.43182474    -0.60400
N983        N  0.27415096  0.93382639  0.40674835    -0.06700
N984        N  0.29960163  0.95345740  0.40935872    -0.59400
N985        N  0.19955923  0.90841086  0.41978953    -0.04400
N986        N  0.17464229  0.91115910  0.43166003    -0.60500
Mn987      Mn  0.23764506  0.86947617  0.42037999     1.18400
C988        C  0.15843151  0.93874755  0.42486723     0.97800
C989        C  0.31436437  0.93941807  0.42524400     0.98500
N990        N  0.20374025  0.80506973  0.35979474    -0.06700
N991        N  0.18454415  0.77975069  0.35503801    -0.63000
N992        N  0.27703902  0.82998932  0.34644916    -0.05500
N993        N  0.29666653  0.82087104  0.33208262    -0.63700
N994        N  0.27672854  0.80626351  0.36020731    -0.06200
N995        N  0.29630002  0.78106469  0.35546389    -0.63300
N996        N  0.20407726  0.82843322  0.34583191    -0.05100
N997        N  0.18526982  0.81899999  0.33128305    -0.64000
Mn998      Mn  0.23958995  0.80482064  0.38332810     1.10700
C999        C  0.17275707  0.78876612  0.33729551     0.99000
C1000       C  0.30891124  0.79036317  0.33792784     0.99100
N1001       N  0.27360564  0.93612594  0.36039237    -0.06200
N1002       N  0.29116882  0.96282232  0.35558275    -0.61600
N1003       N  0.20229101  0.91066334  0.34607300    -0.05500
N1004       N  0.18342781  0.91987923  0.33144042    -0.58300
N1005       N  0.20106310  0.93370726  0.36007322    -0.06800
N1006       N  0.18116455  0.95858367  0.35525853    -0.61200
N1007       N  0.27508122  0.91284521  0.34651666    -0.05800
N1008       N  0.29381187  0.92363868  0.33205408    -0.58300
Mn1009     Mn  0.23689659  0.93499347  0.38356450     1.20200
Mn1010     Mn  0.23973973  0.87045802  0.34577679     1.10100
Cl1011     Cl  0.23845658  0.86992958  0.38314248    -0.86300
C1012       C  0.30416069  0.95467708  0.33802443     0.96000
C1013       C  0.16997974  0.94965633  0.33742948     0.95800
N1014       N  0.27787345  0.69464044  0.59685727    -0.06500
N1015       N  0.30403491  0.71358603  0.59543846    -0.58600
N1016       N  0.20291650  0.67567758  0.58189579    -0.06100
N1017       N  0.17757129  0.68024930  0.57064237    -0.60700
N1018       N  0.20307945  0.69812187  0.59616222    -0.05700
N1019       N  0.17783563  0.71860370  0.59489740    -0.58600
N1020       N  0.27737873  0.67179138  0.58281595    -0.05400
N1021       N  0.30314632  0.67441046  0.57166405    -0.61100
C1022       C  0.31952569  0.70063773  0.57957471     0.95700
C1023       C  0.16234824  0.70722303  0.57880866     0.95500
N1024       N  0.19763177  0.57165910  0.59201200    -0.06700
N1025       N  0.17107942  0.55418018  0.58872392    -0.59200
N1026       N  0.27381073  0.59264432  0.58040705    -0.04800
N1027       N  0.29949138  0.58992511  0.56920867    -0.60400
N1028       N  0.27226452  0.56700567  0.59289387    -0.06700
N1029       N  0.29693544  0.54606897  0.59032160    -0.59400
N1030       N  0.20006590  0.59693816  0.57935406    -0.04400
N1031       N  0.17546288  0.59729385  0.56732671    -0.60500
Mn1032     Mn  0.23865666  0.63431366  0.58048285     1.18400
C1033       C  0.15739557  0.57069383  0.57328811     0.97800
C1034       C  0.31360524  0.56074534  0.57541753     0.98500
N1035       N  0.20199356  0.69354577  0.64199186    -0.06700
N1036       N  0.18169307  0.71822802  0.64648872    -0.63000
N1037       N  0.27349896  0.66603221  0.65621697    -0.05500
N1038       N  0.29228549  0.67363690  0.67114931    -0.63700
N1039       N  0.27504008  0.69034392  0.64284081    -0.06200
N1040       N  0.29525015  0.71425172  0.64823676    -0.63300
N1041       N  0.20060679  0.66887265  0.65514538    -0.05100
N1042       N  0.17953474  0.67668280  0.66895091    -0.64000
Mn1043     Mn  0.23958694  0.69511648  0.61937367     1.10700
C1044       C  0.16768049  0.70746127  0.66331448     0.99000
C1045       C  0.30622614  0.70353956  0.66582059     0.99100
N1046       N  0.26965328  0.56118711  0.63918002    -0.06200
N1047       N  0.28743113  0.53419369  0.64339928    -0.61600
N1048       N  0.19785610  0.58707402  0.65310798    -0.05500
N1049       N  0.17904048  0.57659601  0.66754391    -0.58300
N1050       N  0.19701427  0.56515396  0.63852515    -0.06800
N1051       N  0.17753547  0.53969092  0.64283787    -0.61200
N1052       N  0.27056078  0.58336252  0.65365632    -0.05800
N1053       N  0.28890157  0.57149324  0.66796043    -0.58300
Mn1054     Mn  0.23401727  0.56529913  0.61543008     1.20200
Mn1055     Mn  0.23571205  0.62636744  0.65498278     1.10100
Cl1056     Cl  0.23705346  0.63021032  0.61766189    -0.86300
C1057       C  0.29978463  0.54101519  0.66126414     0.96000
C1058       C  0.16609993  0.54714853  0.66093063     0.95800
N1059       N  0.19491299  0.49359338  0.99793094    -0.37000
N1060       N  0.24307598  0.49691468  0.96682384    -0.57500
N1061       N  0.29133328  0.48561426  0.99710687    -0.36900
N1062       N  0.24349472  0.97626836  0.02685798    -0.57500
C1063       C  0.17638491  0.49392288  0.98164611     0.26600
C1064       C  0.17671126  0.97919614  0.01225054     0.26600
C1065       C  0.30872535  0.48223738  0.98041451     0.26600
C1066       C  0.30937948  0.97007066  0.01143315     0.26600
C1067       C  0.21772985  0.50994165  0.95693269     0.35200
C1068       C  0.26959805  0.50576675  0.95653084     0.35300
C1069       C  0.21763894  0.97984554  0.03870878     0.35200
C1070       C  0.26968982  0.97773089  0.03843968     0.35300
C1071       C  0.14577751  0.48291672  0.98639907    -0.22200
C1072       C  0.14635499  0.97160705  0.00524619    -0.22200
C1073       C  0.33775335  0.46655016  0.98460598    -0.22200
C1074       C  0.33840342  0.95781860  0.00420048    -0.22200
C1075       C  0.22805913  0.52590751  0.93987135    -0.23300
C1076       C  0.26102038  0.52340555  0.93966288    -0.23300
C1077       C  0.22734041  0.98310821  0.05802242    -0.23300
C1078       C  0.26039048  0.98213526  0.05783951    -0.23300
C1079       C  0.18541099  0.50691930  0.96302638    -0.18600
C1080       C  0.18547259  0.97811717  0.03231970    -0.18600
C1081       C  0.30160375  0.97314497  0.03167535    -0.18600
C1082       C  0.30136107  0.49810888  0.96230531    -0.18600
H1083       H  0.12536653  0.48096828  0.97671487     0.14300
H1084       H  0.12588523  0.96258772  0.01356815     0.14300
H1085       H  0.35723637  0.46140698  0.97447918     0.14300
H1086       H  0.35804396  0.94695055  0.01251795     0.14300
H1087       H  0.21341437  0.53839756  0.92887671     0.12600
H1088       H  0.27684115  0.53358528  0.92846625     0.12600
H1089       H  0.21218894  0.98593940  0.07085591     0.12600
H1090       H  0.27571661  0.98404500  0.07055705     0.12600
H1091       H  0.21745921  0.50453079  0.99912796     0.25800
H1092       H  0.27112997  0.50100489  0.99867362     0.25800
N1093       N  0.19160156  0.75663455  0.99836979    -0.37000
N1094       N  0.23845699  0.74538651  0.96725187    -0.57500
N1095       N  0.28797977  0.75348454  0.99714330    -0.36900
N1096       N  0.24042358  0.76741340  0.02738073    -0.57500
C1097       C  0.17383739  0.75994867  0.98190495     0.26600
C1098       C  0.17436873  0.77041692  0.01324058     0.26600
C1099       C  0.30624590  0.75000559  0.98080172     0.26600
C1100       C  0.30736411  0.76456823  0.01167328     0.26600
C1101       C  0.21172108  0.73426013  0.95817073     0.35200
C1102       C  0.26361377  0.73130420  0.95765737     0.35300
C1103       C  0.21487431  0.76602838  0.03958687     0.35200
C1104       C  0.26679268  0.76762991  0.03877108     0.35300
C1105       C  0.14530681  0.77663488  0.98627642    -0.22200
C1106       C  0.14562277  0.78323346  0.00606426    -0.22200
C1107       C  0.33770538  0.75850082  0.98506424    -0.22200
C1108       C  0.33840365  0.76773477  0.00443130    -0.22200
C1109       C  0.21993449  0.71362119  0.94245665    -0.23300
C1110       C  0.25289850  0.71208818  0.94198868    -0.23300
C1111       C  0.22505627  0.76516373  0.05891691    -0.23300
C1112       C  0.25797489  0.76705027  0.05840619    -0.23300
C1113       C  0.18019546  0.74291288  0.96404893    -0.18600
C1114       C  0.18271327  0.76896997  0.03334378    -0.18600
C1115       C  0.29856434  0.76976403  0.03161419    -0.18600
C1116       C  0.29609646  0.73597557  0.96275481    -0.18600
H1117       H  0.12568457  0.78202887  0.97636423     0.14300
H1118       H  0.12645206  0.79522220  0.01432713     0.14300
H1119       H  0.35835871  0.75729647  0.97542701     0.14300
H1120       H  0.35976711  0.77479549  0.01237384     0.14300
H1121       H  0.20395219  0.70067528  0.93251447     0.12600
H1122       H  0.26728206  0.69781572  0.93159217     0.12600
H1123       H  0.21033784  0.76436392  0.07202608     0.12600
H1124       H  0.27356413  0.76767133  0.07104659     0.12600
H1125       H  0.21149765  0.74081582  0.99995379     0.25800
H1126       H  0.26463200  0.74514812  0.99871127     0.25800
N1127       N  0.45179367  0.68516566  0.90610384    -0.06500
N1128       N  0.42539381  0.70362232  0.90826564    -0.58600
N1129       N  0.52647665  0.66282462  0.91955796    -0.06100
N1130       N  0.05006943  0.66468571  0.93210053    -0.60700
N1131       N  0.52663095  0.68753639  0.90646362    -0.05700
N1132       N  0.05164032  0.70636128  0.90959436    -0.58600
N1133       N  0.45252715  0.66037476  0.91914824    -0.05400
N1134       N  0.42674376  0.66130652  0.93038971    -0.61100
C1135       C  0.40992273  0.68830685  0.92344404     0.95700
C1136       C  0.06597541  0.69251896  0.92562098     0.95500
N1137       N  0.53080403  0.56070371  0.90433962    -0.06700
N1138       N  0.05664130  0.54154629  0.90744912    -0.59200
N1139       N  0.45513884  0.58140028  0.91797832    -0.04800
N1140       N  0.43034072  0.57715197  0.92974641    -0.60400
N1141       N  0.45528494  0.55829484  0.90407284    -0.06700
N1142       N  0.43026446  0.53776867  0.90616637    -0.59400
N1143       N  0.52929523  0.58392079  0.91816758    -0.04400
N1144       N  0.05315094  0.58123811  0.93078654    -0.60500
Mn1145     Mn  0.49083472  0.62207330  0.91930055     1.18400
C1146       C  0.07090283  0.55527656  0.92347565     0.97800
C1147       C  0.41489227  0.54983399  0.92236472     0.98500
N1148       N  0.02712458  0.69082252  0.86039615    -0.06700
N1149       N  0.04380670  0.71822100  0.85571439    -0.63000
N1150       N  0.45468823  0.66745026  0.84541719    -0.05500
N1151       N  0.43680406  0.67836443  0.83067446    -0.63700
N1152       N  0.45357683  0.68965286  0.85987054    -0.06200
N1153       N  0.43465434  0.71552118  0.85526678    -0.63300
N1154       N  0.02861401  0.66823591  0.84614484    -0.05100
N1155       N  0.04634588  0.68027418  0.83154462    -0.64000
Mn1156     Mn  0.48950523  0.68939066  0.88338237     1.10700
C1157       C  0.05604880  0.71138079  0.83776796     0.99000
C1158       C  0.42396040  0.70820413  0.83708743     0.99100
N1159       N  0.45707306  0.56041016  0.85746922    -0.06200
N1160       N  0.43775659  0.53529384  0.85244219    -0.61600
N1161       N  0.03064827  0.58538787  0.84532142    -0.05500
N1162       N  0.05006642  0.57632984  0.83085495    -0.58300
N1163       N  0.03070559  0.56164125  0.85906477    -0.06800
N1164       N  0.05044664  0.53665681  0.85429557    -0.61200
N1165       N  0.45689702  0.58455439  0.84391860    -0.05800
N1166       N  0.43777519  0.57579695  0.82933869    -0.58300
Mn1167     Mn  0.49331781  0.55949147  0.88110744     1.20200
Mn1168     Mn  0.49216622  0.62711835  0.84455248     1.10100
Cl1169     Cl  0.49139898  0.62450402  0.88196853    -0.86300
C1170       C  0.42548052  0.54522600  0.83495566     0.96000
C1171       C  0.06259375  0.54594000  0.83667512     0.95800
N1172       N  0.11390934  0.87647133  0.71625021    -0.37000
N1173       N  0.10111969  0.82583033  0.74681995    -0.57500
N1174       N  0.08681146  0.87928333  0.77450328    -0.36900
N1175       N  0.10136090  0.92979954  0.74451591    -0.57500
C1176       C  0.12626582  0.84785088  0.70810829     0.26600
C1177       C  0.12788259  0.90346879  0.70720468     0.26600
C1178       C  0.08918429  0.85212614  0.78678383     0.26600
C1179       C  0.08916612  0.90777096  0.78551598     0.26600
C1180       C  0.10154232  0.80571006  0.73079021     0.35200
C1181       C  0.08817617  0.80696582  0.76147576     0.35300
C1182       C  0.10456137  0.94895374  0.72811186     0.35200
C1183       C  0.08905972  0.95054418  0.75842198     0.35300
C1184       C  0.14794608  0.85671860  0.69346901    -0.22200
C1185       C  0.14897703  0.89187377  0.69290803    -0.22200
C1186       C  0.09281518  0.86349326  0.80587926    -0.22200
C1187       C  0.09268940  0.89865636  0.80509060    -0.22200
C1188       C  0.08862740  0.77403433  0.73522790    -0.23300
C1189       C  0.08011600  0.77483959  0.75469151    -0.23300
C1190       C  0.09395407  0.98198659  0.73152931    -0.23300
C1191       C  0.08407972  0.98299666  0.75077035    -0.23300
C1192       C  0.11722490  0.81407602  0.71303036    -0.18600
C1193       C  0.12116458  0.93821087  0.71113514    -0.18600
C1194       C  0.08624270  0.94164625  0.77843267    -0.18600
C1195       C  0.08604595  0.81753050  0.78122376    -0.18600
H1196       H  0.16161105  0.83965653  0.68415873     0.14300
H1197       H  0.16359317  0.90713761  0.68309760     0.14300
H1198       H  0.09496948  0.84807354  0.81903385     0.14300
H1199       H  0.09469888  0.91555977  0.81753962     0.14300
H1200       H  0.08635490  0.75233563  0.72556220     0.12600
H1201       H  0.06975947  0.75395371  0.76298060     0.12600
H1202       H  0.10577939  0.50406483  0.72594007     0.12600
H1203       H  0.08584463  0.50459849  0.76275534     0.12600
H1204       H  0.09481567  0.87741034  0.72611812     0.25800
H1205       H  0.08020798  0.87852849  0.75981854     0.25800
N1206       N  0.36757785  0.92837937  0.74703817    -0.37000
N1207       N  0.35054589  0.87425278  0.72014223    -0.57500
N1208       N  0.36620154  0.82440834  0.75021507    -0.36900
N1209       N  0.38130957  0.87827260  0.77776283    -0.57500
C1210       C  0.35223525  0.94644541  0.73288521     0.26600
C1211       C  0.36909786  0.94849944  0.76310751     0.26600
C1212       C  0.35161144  0.80401274  0.73702711     0.26600
C1213       C  0.36909062  0.80630234  0.76707548     0.26600
C1214       C  0.34873308  0.90100432  0.70758591     0.35200
C1215       C  0.34800981  0.84565129  0.70924616     0.35300
C1216       C  0.39330047  0.90656170  0.78627110     0.35200
C1217       C  0.39337927  0.85126103  0.78778731     0.35300
C1218       C  0.34407094  0.97843886  0.74004361    -0.22200
C1219       C  0.35463595  0.97969144  0.75912129    -0.22200
C1220       C  0.34542286  0.77249844  0.74565918    -0.22200
C1221       C  0.35621103  0.77406324  0.76462179    -0.22200
C1222       C  0.34493555  0.88940619  0.68856466    -0.23300
C1223       C  0.34435420  0.85433629  0.68961658    -0.23300
C1224       C  0.41277737  0.89746829  0.80191493    -0.23300
C1225       C  0.41275848  0.86239980  0.80289728    -0.23300
C1226       C  0.34701279  0.93557971  0.71336287    -0.18600
C1227       C  0.38550503  0.94044474  0.78069116    -0.18600
C1228       C  0.38606433  0.81676045  0.78389476    -0.18600
C1229       C  0.34601843  0.81211373  0.71703139    -0.18600
H1230       H  0.32237186  0.49653969  0.73530092     0.14300
H1231       H  0.34391976  0.49896273  0.77167862     0.14300
H1232       H  0.33503173  0.75017709  0.73896349     0.14300
H1233       H  0.35563181  0.75336735  0.77520147     0.14300
H1234       H  0.34193278  0.90462718  0.67539502     0.12600
H1235       H  0.34080063  0.83730191  0.67737080     0.12600
H1236       H  0.42567726  0.91430482  0.81161273     0.12600
H1237       H  0.42556997  0.84689060  0.81348846     0.12600
H1238       H  0.37975610  0.90543864  0.74511656     0.25800
H1239       H  0.37738275  0.84743026  0.74716011     0.25800
N1240       N  0.10183240  0.62051584  0.22110691    -0.37000
N1241       N  0.11958267  0.56784643  0.24930424    -0.57500
N1242       N  0.13095601  0.62025588  0.27880403    -0.36900
N1243       N  0.11633252  0.67295526  0.24975132    -0.57500
C1244       C  0.10208335  0.59285251  0.20927392     0.26600
C1245       C  0.10059390  0.64863858  0.20949335     0.26600
C1246       C  0.14386015  0.59256927  0.28779393     0.26600
C1247       C  0.14237952  0.64825065  0.28797636     0.26600
C1248       C  0.10759729  0.54770234  0.23506269     0.35200
C1249       C  0.12350342  0.54768413  0.26527770     0.35300
C1250       C  0.10280520  0.69280442  0.23573392     0.35200
C1251       C  0.11866791  0.69252145  0.26596950     0.35300
C1252       C  0.10087715  0.60351850  0.18984831    -0.22200
C1253       C  0.09992570  0.63871615  0.18998751    -0.22200
C1254       C  0.16326093  0.60304395  0.30308519    -0.22200
C1255       C  0.16240870  0.63819383  0.30316460    -0.22200
C1256       C  0.10428550  0.51453535  0.24196916    -0.23300
C1257       C  0.11443323  0.51451133  0.26108236    -0.23300
C1258       C  0.09676612  0.72518092  0.24305197    -0.23300
C1259       C  0.10683964  0.72500167  0.26219792    -0.23300
C1260       C  0.10115103  0.55830596  0.21558511    -0.18600
C1261       C  0.09737936  0.68276696  0.21611201    -0.18600
C1262       C  0.13420597  0.68254514  0.28349808    -0.18600
C1263       C  0.13745948  0.55810935  0.28312565    -0.18600
H1264       H  0.10022843  0.58757888  0.17692313     0.14300
H1265       H  0.09831854  0.65510864  0.17719366     0.14300
H1266       H  0.17669344  0.58702273  0.31312567     0.14300
H1267       H  0.17505335  0.65447525  0.31329692     0.14300
H1268       H  0.08534882  0.99446535  0.23636380     0.12600
H1269       H  0.10717670  0.99371157  0.27265873     0.12600
H1270       H  0.08651516  0.74681830  0.23534270     0.12600
H1271       H  0.10599679  0.74647494  0.27212998     0.12600
H1272       H  0.09853609  0.62010738  0.23620003     0.25800
H1273       H  0.11287852  0.61994528  0.26835966     0.25800
N1274       N  0.36212063  0.56903560  0.25051378    -0.37000
N1275       N  0.34525689  0.62176490  0.27853140    -0.57500
N1276       N  0.36640381  0.67319244  0.25050539    -0.36900
N1277       N  0.38043982  0.62063222  0.22186220    -0.57500
C1278       C  0.34603706  0.55045492  0.26411729     0.26600
C1279       C  0.36372370  0.55011920  0.23395138     0.26600
C1280       C  0.35047481  0.69272295  0.26368543     0.26600
C1281       C  0.36952813  0.69195832  0.23388332     0.26600
C1282       C  0.34297973  0.59416620  0.29044919     0.35200
C1283       C  0.34450320  0.64951997  0.29025435     0.35300
C1284       C  0.39182664  0.59241834  0.21284741     0.35200
C1285       C  0.39478838  0.64758644  0.21309705     0.35300
C1286       C  0.33737349  0.51933565  0.25612869    -0.22200
C1287       C  0.34850735  0.51914272  0.23708237    -0.22200
C1288       C  0.34336712  0.72421202  0.25534562    -0.22200
C1289       C  0.35538903  0.72371918  0.23651687    -0.22200
C1290       C  0.34059013  0.60445347  0.30984599    -0.23300
C1291       C  0.34149841  0.63954886  0.30971672    -0.23300
C1292       C  0.41359127  0.60147029  0.19830183    -0.23300
C1293       C  0.41537959  0.63651634  0.19841995    -0.23300
C1294       C  0.34072198  0.56002055  0.28387959    -0.18600
C1295       C  0.38103773  0.55890674  0.21674171    -0.18600
C1296       C  0.38693828  0.68200483  0.21698696    -0.18600
C1297       C  0.34423602  0.68369839  0.28344514    -0.18600
H1298       H  0.32394167  0.99977306  0.26155979     0.14300
H1299       H  0.34658814  0.99949314  0.22522320     0.14300
H1300       H  0.33114162  0.74550518  0.26220137     0.14300
H1301       H  0.35424834  0.74455690  0.22604890     0.14300
H1302       H  0.33801560  0.58838746  0.32271840     0.12600
H1303       H  0.33980219  0.65585434  0.32246307     0.12600
H1304       H  0.42636784  0.58462380  0.18841031     0.12600
H1305       H  0.42971462  0.65208982  0.18861747     0.12600
H1306       H  0.37469994  0.59135138  0.25315823     0.25800
H1307       H  0.37793959  0.65018780  0.25348103     0.25800
N1308       N  0.45230335  0.81240856  0.09222823    -0.06500
N1309       N  0.42519555  0.79540524  0.08975952    -0.58600
N1310       N  0.52898718  0.83278079  0.07973055    -0.06100
N1311       N  0.05457768  0.82840865  0.06936527    -0.60700
N1312       N  0.52729980  0.80819264  0.09288049    -0.05700
N1313       N  0.05176363  0.78674337  0.09189719    -0.58600
N1314       N  0.45479308  0.83661989  0.07889085    -0.05400
N1315       N  0.42971507  0.83677741  0.06725163    -0.61100
C1316       C  0.41130439  0.81111196  0.07409010     0.95700
C1317       C  0.06841525  0.79966968  0.07649236     0.95500
N1318       N  0.53116697  0.93664405  0.09364231    -0.06700
N1319       N  0.05700486  0.95586467  0.09158958    -0.59200
N1320       N  0.45695043  0.91523949  0.07927751    -0.04800
N1321       N  0.43195180  0.91880269  0.06763925    -0.60400
N1322       N  0.45647633  0.93867858  0.09301582    -0.06700
N1323       N  0.43116919  0.95887166  0.09095631    -0.59400
N1324       N  0.53120732  0.91249089  0.08030864    -0.04400
N1325       N  0.05699958  0.91406335  0.06930442    -0.60500
Mn1326     Mn  0.49319436  0.87424299  0.07891651     1.18400
C1327       C  0.07283206  0.94142485  0.07628819     0.97800
C1328       C  0.41627964  0.94620375  0.07498076     0.98500
N1329       N  0.02511505  0.80654106  0.13994958    -0.06700
N1330       N  0.04328833  0.78021108  0.14486729    -0.63000
N1331       N  0.45391493  0.83142850  0.15312374    -0.05500
N1332       N  0.43743346  0.82059800  0.16852498    -0.63700
N1333       N  0.45307761  0.80838785  0.13910260    -0.06200
N1334       N  0.43589633  0.78182086  0.14479532    -0.63300
N1335       N  0.02618361  0.83015530  0.15364707    -0.05100
N1336       N  0.04492998  0.81989192  0.16816014    -0.64000
Mn1337     Mn  0.48933330  0.80803664  0.11553373     1.10700
C1338       C  0.05613467  0.78901764  0.16229664     0.99000
C1339       C  0.42607353  0.78970393  0.16317214     0.99100
N1340       N  0.45557360  0.93803947  0.13944066    -0.06200
N1341       N  0.43665655  0.96366684  0.14458735    -0.61600
N1342       N  0.02789379  0.91344749  0.15381869    -0.05500
N1343       N  0.04585064  0.92325502  0.16871238    -0.58300
N1344       N  0.02856041  0.93689481  0.13990378    -0.06800
N1345       N  0.04718809  0.96244702  0.14498359    -0.61200
N1346       N  0.45476311  0.91380379  0.15290608    -0.05800
N1347       N  0.43536561  0.92271907  0.16736075    -0.58300
Mn1348     Mn  0.49288633  0.93836844  0.11632181     1.20200
Mn1349     Mn  0.49067057  0.87211912  0.15343654     1.10100
Cl1350     Cl  0.49149064  0.87316559  0.11616100    -0.86300
C1351       C  0.42406155  0.95386507  0.16207049     0.96000
C1352       C  0.05828588  0.95362594  0.16288438     0.95800
C1353       C  0.39044863  0.00471295  0.16999939    -0.26700
C1354       C  0.41172599  0.97915077  0.17644437    -0.14700
C1355       C  0.42289789  0.97988562  0.19603440     0.35900
C1356       C  0.41236575  0.50653819  0.20930405    -0.26100
C1357       C  0.39024465  0.53112672  0.20292224    -0.15400
C1358       C  0.37774009  0.52915914  0.18373257     0.37000
N1359       N  0.35326060  0.55267725  0.17740005    -0.89600
H1360       H  0.38181639  0.00413180  0.15502481     0.18100
H1361       H  0.42165083  0.50806306  0.22410610     0.18100
N1362       N  0.44495186  0.95439877  0.20312549    -0.88600
H1363       H  0.34559529  0.54663407  0.16325274     0.35500
H1364       H  0.36339569  0.57696170  0.17643237     0.40600
H1365       H  0.43218245  0.93162375  0.20465942     0.40200
H1366       H  0.45382250  0.46218228  0.21792303     0.35100
C1367       C  0.41943550  0.73322270  0.20881400    -0.26700
C1368       C  0.39686376  0.70905241  0.20273911    -0.14700
C1369       C  0.38373697  0.71172370  0.18363938     0.35900
C1370       C  0.39381878  0.73821842  0.17115559    -0.26100
C1371       C  0.41573368  0.76297788  0.17738741    -0.15400
C1372       C  0.42881142  0.76033945  0.19648673     0.37000
N1373       N  0.45233273  0.78434743  0.20313253    -0.89600
H1374       H  0.42953939  0.73104791  0.22340142     0.18100
H1375       H  0.38385322  0.73990317  0.15651427     0.18100
N1376       N  0.35949449  0.68889451  0.17658449    -0.88600
H1377       H  0.46157144  0.77685677  0.21673725     0.35500
H1378       H  0.44049673  0.80754377  0.20553224     0.40600
H1379       H  0.35174908  0.67185168  0.18738799     0.40200
H1380       H  0.36966612  0.67443343  0.16528185     0.35100
C1381       C  0.09973321  0.98508680  0.18149408    -0.26700
C1382       C  0.06733832  0.98022097  0.17703721    -0.14700
C1383       C  0.04387034  0.00188638  0.18538397     0.35900
C1384       C  0.05926128  0.52902277  0.19630546    -0.26100
C1385       C  0.09179578  0.53166872  0.20116627    -0.15400
C1386       C  0.11401968  0.50774269  0.19335519     0.37000
N1387       N  0.14780800  0.50929979  0.19735309    -0.89600
H1388       H  0.11774723  0.96872033  0.17486378     0.18100
H1389       H  0.04228795  0.54713097  0.20244756     0.18100
N1390       N  0.01046897  0.99702694  0.18102366    -0.88600
H1391       H  0.15391120  0.48750629  0.20545530     0.35500
H1392       H  0.15359154  0.53036942  0.20593312     0.40600
H1393       H  0.50694245  0.00198561  0.16633326     0.40200
H1394       H  0.49602590  0.01323213  0.18906828     0.35100
C1395       C  0.10952197  0.72980824  0.19241243    -0.26700
C1396       C  0.08649791  0.70946677  0.20192930    -0.14700
C1397       C  0.05351815  0.71605972  0.19867175     0.35900
C1398       C  0.04453430  0.74256844  0.18590100    -0.26100
C1399       C  0.06751358  0.76280551  0.17631744    -0.15400
C1400       C  0.10047614  0.75647889  0.17968538     0.37000
N1401       N  0.12533201  0.77618702  0.17037644    -0.89600
H1402       H  0.13477458  0.72502411  0.19501463     0.18100
H1403       H  0.01924537  0.74739998  0.18339697     0.18100
N1404       N  0.02852786  0.69694061  0.20827586    -0.88600
H1405       H  0.13794457  0.78871335  0.18142374     0.35500
H1406       H  0.11591761  0.79518739  0.16125601     0.40600
H1407       H  0.03767403  0.67820415  0.21765693     0.40200
H1408       H  0.50798243  0.70709222  0.20816173     0.35100
C1409       C  0.10277272  0.51347271  0.81721900    -0.26700
C1410       C  0.07067133  0.51936689  0.82229914    -0.14700
C1411       C  0.04634293  0.49874434  0.81430931     0.35900
C1412       C  0.04971369  0.97941051  0.79708691    -0.26100
C1413       C  0.08125846  0.96945337  0.79282273    -0.15400
C1414       C  0.10717332  0.98606410  0.80213667     0.37000
N1415       N  0.14012895  0.97753792  0.79809615    -0.89600
H1416       H  0.12139617  0.52918391  0.82350506     0.18100
H1417       H  0.03004147  0.96685641  0.78973115     0.18100
N1418       N  0.51326814  0.51990885  0.81125258    -0.88600
H1419       H  0.15093748  0.99915415  0.79196310     0.35500
H1420       H  0.14220839  0.95821765  0.78767097     0.40600
H1421       H  0.50548244  0.51341134  0.82538527     0.40200
H1422       H  0.49832372  0.50697288  0.80153123     0.35100
C1423       C  0.09312577  0.73797009  0.81348944    -0.26700
C1424       C  0.06402798  0.73912088  0.82381779    -0.14700
C1425       C  0.04254727  0.76661396  0.82060809     0.35900
C1426       C  0.05070157  0.79239312  0.80708784    -0.26100
C1427       C  0.07971663  0.79118149  0.79664719    -0.15400
C1428       C  0.10141332  0.76401032  0.80010236     0.37000
N1429       N  0.13158435  0.76289619  0.78983915    -0.89600
H1430       H  0.10950561  0.71686562  0.81602253     0.18100
H1431       H  0.03402857  0.81313650  0.80428201     0.18100
N1432       N  0.01221482  0.76782204  0.83072853    -0.88600
H1433       H  0.14468259  0.74119382  0.79392483     0.35500
H1434       H  0.14492072  0.78401666  0.79428419     0.40600
H1435       H  0.49790239  0.74621862  0.82516882     0.40200
H1436       H  0.49733454  0.78899702  0.82559453     0.35100
C1437       C  0.38240922  0.97079632  0.81291799    -0.26700
C1438       C  0.39509485  0.96900614  0.79383590    -0.14700
C1439       C  0.41730635  0.99386724  0.78749664     0.35900
C1440       C  0.42100498  0.51987656  0.80148048    -0.26100
C1441       C  0.41079227  0.52051218  0.82114878    -0.15400
C1442       C  0.39229438  0.99629953  0.82601722     0.37000
N1443       N  0.37969387  0.99726719  0.84567987    -0.89600
H1444       H  0.36515557  0.95183465  0.81766979     0.18100
H1445       H  0.43796394  0.53881015  0.79631846     0.18100
N1446       N  0.43095515  0.99202836  0.76811250    -0.88600
H1447       H  0.36350610  0.97731836  0.84799281     0.35500
H1448       H  0.36389816  0.51911702  0.84933597     0.40600
H1449       H  0.44447333  0.96952105  0.76732279     0.40200
H1450       H  0.43842807  0.51328484  0.76611571     0.35100
C1451       C  0.38083138  0.78580243  0.81592165    -0.26700
C1452       C  0.39676159  0.78970732  0.79788325    -0.14700
C1453       C  0.42151635  0.76673284  0.79271893     0.35900
C1454       C  0.42932058  0.73977409  0.80552866    -0.26100
C1455       C  0.41334156  0.73567275  0.82356001    -0.15400
C1456       C  0.38915120  0.75922827  0.82896132     0.37000
N1457       N  0.37250203  0.75551865  0.84736611    -0.89600
H1458       H  0.36175969  0.80346935  0.81974583     0.18100
H1459       H  0.44849633  0.72230783  0.80160084     0.18100
N1460       N  0.43917482  0.77141928  0.77472931    -0.88600
H1461       H  0.35419666  0.77373184  0.84855095     0.35500
H1462       H  0.38873732  0.76092122  0.85855832     0.40600
H1463       H  0.42374487  0.76648940  0.76305869     0.40200
H1464       H  0.45775113  0.75349382  0.77367336     0.35100
C1465       C  0.13082370  0.74960349  0.04794977    -0.26700
C1466       C  0.15634911  0.77293691  0.04803026    -0.14700
C1467       C  0.15432496  0.80190749  0.06007909     0.35900
C1468       C  0.12621826  0.80804148  0.07090951    -0.26100
C1469       C  0.09954637  0.78662065  0.06930050    -0.15400
C1470       C  0.10226308  0.75622365  0.05825608     0.37000
N1471       N  0.07635737  0.73235241  0.05641700    -0.89600
H1472       H  0.13238610  0.72708103  0.03880344     0.18100
H1473       H  0.12459523  0.83034264  0.08010808     0.18100
N1474       N  0.18012947  0.82592535  0.06052305    -0.88600
H1475       H  0.06913364  0.73248494  0.04174200     0.35500
H1476       H  0.05644722  0.73953275  0.06476507     0.40600
H1477       H  0.17191546  0.84927984  0.05504357     0.40200
H1478       H  0.18696965  0.82928106  0.07512550     0.35100
C1479       C  0.33620429  0.81374946  0.04267675    -0.26700
C1480       C  0.32427885  0.78070773  0.04524892    -0.14700
C1481       C  0.33950843  0.75830603  0.05872032     0.35900
C1482       C  0.36675640  0.76951988  0.06888871    -0.26100
C1483       C  0.38002101  0.80187470  0.06523808    -0.15400
C1484       C  0.36421367  0.82421599  0.05201259     0.37000
N1485       N  0.37694020  0.85718851  0.04733143    -0.89600
H1486       H  0.32475562  0.83090540  0.03228085     0.18100
H1487       H  0.37865160  0.75202837  0.07887480     0.18100
N1488       N  0.32912744  0.72371861  0.06174879    -0.88600
H1489       H  0.35884356  0.87525343  0.04966573     0.35500
H1490       H  0.38244236  0.85763915  0.03234682     0.40600
H1491       H  0.30963926  0.71764313  0.05289938     0.40200
H1492       H  0.32132028  0.72156235  0.07630278     0.35100
C1493       C  0.13010778  0.70932396  0.96350844    -0.26700
C1494       C  0.15194804  0.72967205  0.95307503    -0.14700
C1495       C  0.14551060  0.73808877  0.93328724     0.35900
C1496       C  0.11734261  0.72564706  0.92441649    -0.26100
C1497       C  0.09534362  0.70565937  0.93510972    -0.15400
C1498       C  0.10178035  0.69799387  0.95495183     0.37000
N1499       N  0.07904830  0.67980756  0.96681550    -0.89600
H1500       H  0.13469460  0.70290961  0.97874199     0.18100
H1501       H  0.11251549  0.73163889  0.90917182     0.18100
N1502       N  0.16734164  0.75928792  0.92238624    -0.88600
H1503       H  0.07227826  0.69554560  0.97849302     0.35500
H1504       H  0.09048294  0.65831543  0.97269005     0.40600
H1505       H  0.16739467  0.78334263  0.92896753     0.40200
H1506       H  0.15922678  0.76282317  0.90801935     0.35100
C1507       C  0.33100899  0.68901446  0.95144789    -0.26700
C1508       C  0.32156330  0.72315910  0.94936559    -0.14700
C1509       C  0.33960466  0.74523158  0.93709040     0.35900
C1510       C  0.36786719  0.73300051  0.92828861    -0.26100
C1511       C  0.37839272  0.69928877  0.93135933    -0.15400
C1512       C  0.35905744  0.67684921  0.94250434     0.37000
N1513       N  0.36781859  0.64169719  0.94492055    -0.89600
H1514       H  0.31715458  0.67200436  0.96075252     0.18100
H1515       H  0.38225891  0.75039570  0.91956423     0.18100
N1516       N  0.33089033  0.78041805  0.93403096    -0.88600
H1517       H  0.34913941  0.62674396  0.93951890     0.35500
H1518       H  0.36999943  0.63667594  0.95994247     0.40600
H1519       H  0.30935459  0.78647928  0.94108362     0.40200
H1520       H  0.32677102  0.78378740  0.91901989     0.35100
C1521       C  0.10898789  0.98675902  0.06288345    -0.26700
C1522       C  0.10418041  0.95261600  0.06836890    -0.14700
C1523       C  0.12808872  0.92833189  0.06411446     0.35900
C1524       C  0.15567116  0.93782004  0.05367910    -0.26100
C1525       C  0.15957296  0.97134625  0.04695273    -0.15400
C1526       C  0.13627528  0.99631201  0.05183719     0.37000
N1527       N  0.14000193  0.03092728  0.04514446    -0.89600
H1528       H  0.09051080  0.00547300  0.06609170     0.18100
H1529       H  0.17330488  0.91850229  0.04987967     0.18100
N1530       N  0.12397531  0.89364613  0.07004605    -0.88600
H1531       H  0.12113076  0.04613524  0.05031883     0.35500
H1532       H  0.13821655  0.03105307  0.02985630     0.40600
H1533       H  0.14371773  0.88672991  0.07860916     0.40200
H1534       H  0.12381887  0.87874552  0.05735612     0.35100
C1535       C  0.38295294  0.98592927  0.05536571    -0.26700
C1536       C  0.38470965  0.95743324  0.06777518    -0.14700
C1537       C  0.35724226  0.93722935  0.07091816     0.35900
C1538       C  0.32948042  0.94361988  0.05973846    -0.26100
C1539       C  0.32852602  0.97059035  0.04607207    -0.15400
C1540       C  0.35493034  0.99295184  0.04472974     0.37000
N1541       N  0.35374108  0.02201323  0.03189884    -0.89600
H1542       H  0.40388313  0.00184826  0.05319857     0.18100
H1543       H  0.30902834  0.92680513  0.06113997     0.18100
N1544       N  0.35762806  0.91054132  0.08550814    -0.88600
H1545       H  0.37242624  0.01980262  0.02168966     0.35500
H1546       H  0.35783891  0.04383322  0.04028258     0.40600
H1547       H  0.37491841  0.89243270  0.08157758     0.40200
H1548       H  0.33559606  0.89790115  0.08588793     0.35100
C1549       C  0.11585424  0.51256180  0.92669523    -0.26700
C1550       C  0.10232375  0.54424766  0.93189806    -0.14700
C1551       C  0.11856746  0.56462777  0.94574320     0.35900
C1552       C  0.14661160  0.55246560  0.95467802    -0.26100
C1553       C  0.15918793  0.52022280  0.95022600    -0.15400
C1554       C  0.14393222  0.50017083  0.93577161     0.37000
N1555       N  0.15766783  0.96663448  0.92829744    -0.89600
H1556       H  0.10557466  0.99646542  0.91462593     0.18100
H1557       H  0.15810420  0.56791662  0.96575920     0.18100
N1558       N  0.10656595  0.59763507  0.95106972    -0.88600
H1559       H  0.14080186  0.94793119  0.93190867     0.35500
H1560       H  0.17878086  0.96013172  0.93561027     0.40600
H1561       H  0.12436681  0.61565662  0.94803329     0.40200
H1562       H  0.10231422  0.59757863  0.96620257     0.35100
C1563       C  0.33995818  0.49620846  0.93383471    -0.26700
C1564       C  0.32878743  0.51249952  0.95089490    -0.14700
C1565       C  0.34540775  0.54129517  0.95797973     0.35900
C1566       C  0.37318410  0.55219406  0.94837293    -0.26100
C1567       C  0.38494575  0.53593977  0.93144164    -0.15400
C1568       C  0.36786513  0.50767746  0.92395567     0.37000
N1569       N  0.37877423  0.49063519  0.90652033    -0.89600
H1570       H  0.32722955  0.47409430  0.92847668     0.18100
H1571       H  0.38568748  0.57390420  0.95438834     0.18100
N1572       N  0.33477635  0.56042274  0.97480404    -0.88600
H1573       H  0.36273406  0.47143022  0.90256218     0.35500
H1574       H  0.40037832  0.47837042  0.90990385     0.40600
H1575       H  0.31250103  0.55241969  0.98004708     0.40200
H1576       H  0.35141045  0.55641935  0.98603012     0.35100
C1577       C  0.17326297  0.51434655  0.69172653    -0.26700
C1578       C  0.15556096  0.51971945  0.67448098    -0.14700
C1579       C  0.13015756  0.49717830  0.66998234     0.35900
C1580       C  0.11969770  0.97043226  0.67956006    -0.26100
C1581       C  0.13433312  0.96498122  0.69780484    -0.15400
C1582       C  0.16007639  0.98618537  0.70350629     0.37000
N1583       N  0.17720959  0.98131666  0.72161413    -0.89600
H1584       H  0.19323625  0.53092041  0.69509451     0.18100
H1585       H  0.09995597  0.95427124  0.67519707     0.18100
N1586       N  0.11058924  0.50116072  0.65277221    -0.88600
H1587       H  0.20112655  0.97603531  0.71804465     0.35500
H1588       H  0.16903787  0.96008327  0.72942098     0.40600
H1589       H  0.11691417  0.52274186  0.64464152     0.40200
H1590       H  0.08699755  0.50531516  0.65748495     0.35100
C1591       C  0.12959890  0.75508003  0.66920562    -0.26700
C1592       C  0.15214035  0.73188793  0.67683796    -0.14700
C1593       C  0.16213768  0.73510021  0.69651465     0.35900
C1594       C  0.15025934  0.76220419  0.70782311    -0.26100
C1595       C  0.12786704  0.78552137  0.70018815    -0.15400
C1596       C  0.11682272  0.78145519  0.68072086     0.37000
N1597       N  0.09254707  0.80308646  0.67225474    -0.89600
H1598       H  0.12185555  0.75267086  0.65410815     0.18100
H1599       H  0.15867185  0.76539715  0.72273060     0.18100
N1600       N  0.18544696  0.71199061  0.70469331    -0.88600
H1601       H  0.10329045  0.81729707  0.66100924     0.35500
H1602       H  0.08324998  0.82040356  0.68240258     0.40600
H1603       H  0.17433342  0.68827044  0.70636054     0.40200
H1604       H  0.19197901  0.71961985  0.71879782     0.35100
C1605       C  0.30365360  0.96837958  0.69665746    -0.26700
C1606       C  0.33650504  0.96158478  0.69868845    -0.14700
C1607       C  0.35890214  0.98043410  0.68752285     0.35900
C1608       C  0.34218505  0.51176834  0.68075469    -0.26100
C1609       C  0.31013121  0.51341557  0.67471103    -0.15400
C1610       C  0.28806111  0.48891067  0.68172325     0.37000
N1611       N  0.25489716  0.49081006  0.67607834    -0.89600
H1612       H  0.28662290  0.95388714  0.70535603     0.18100
H1613       H  0.35900424  0.53060798  0.67529458     0.18100
N1614       N  0.39261864  0.97348475  0.68944862    -0.88600
H1615       H  0.24158752  0.47189075  0.68324372     0.35500
H1616       H  0.25361021  0.48539111  0.66110216     0.40600
H1617       H  0.39926084  0.97982705  0.70375004     0.40200
H1618       H  0.40586190  0.98928916  0.68006242     0.35100
C1619       C  0.34792007  0.74304435  0.67790072    -0.26700
C1620       C  0.31734875  0.72877450  0.68015820    -0.14700
C1621       C  0.29608978  0.74218577  0.69428710     0.35900
C1622       C  0.30556966  0.76987824  0.70580213    -0.26100
C1623       C  0.33634381  0.78385255  0.70381730    -0.15400
C1624       C  0.35791603  0.77007867  0.68991959     0.37000
N1625       N  0.38962382  0.78395347  0.68793305    -0.89600
H1626       H  0.36392108  0.73312475  0.66670323     0.18100
H1627       H  0.28897766  0.78035667  0.71650645     0.18100
N1628       N  0.26452008  0.72838515  0.69655313    -0.88600
H1629       H  0.40238057  0.77120999  0.67691729     0.35500
H1630       H  0.40175458  0.77922469  0.70107137     0.40600
H1631       H  0.24792456  0.74799705  0.69402540     0.40200
H1632       H  0.26186371  0.72025008  0.71110306     0.35100
C1633       C  0.18235930  0.48550559  0.30808498    -0.26700
C1634       C  0.15892550  0.97605133  0.32346623    -0.14700
C1635       C  0.13320930  0.99855299  0.32789040     0.35900
C1636       C  0.12625973  0.02549560  0.31494637    -0.26100
C1637       C  0.14675619  0.53108592  0.29742780    -0.15400
C1638       C  0.17544905  0.51243199  0.29506683     0.37000
N1639       N  0.19774376  0.52150012  0.27977167    -0.89600
H1640       H  0.20463013  0.47140393  0.30644399     0.18100
H1641       H  0.10636845  0.04248978  0.31819489     0.18100
N1642       N  0.11354518  0.99483699  0.34517332    -0.88600
H1643       H  0.21824906  0.50609194  0.28049087     0.35500
H1644       H  0.18688848  0.51637710  0.26631269     0.40600
H1645       H  0.11982374  0.97323780  0.35332409     0.40200
H1646       H  0.08998551  0.99084693  0.34054644     0.35100
C1647       C  0.17733325  0.75896934  0.30536740    -0.26700
C1648       C  0.16127338  0.76269194  0.32336703    -0.14700
C1649       C  0.13643156  0.73970349  0.32829773     0.35900
C1650       C  0.12802982  0.71387771  0.31512032    -0.26100
C1651       C  0.14442389  0.70992436  0.29722153    -0.15400
C1652       C  0.16968989  0.73260765  0.29241252     0.37000
N1653       N  0.18881045  0.72909465  0.27491243    -0.89600
H1654       H  0.19695751  0.77588712  0.30163445     0.18100
H1655       H  0.10862646  0.69668199  0.31887239     0.18100
N1656       N  0.11899581  0.74238604  0.34639127    -0.88600
H1657       H  0.18412464  0.75025178  0.26594985     0.35500
H1658       H  0.18287509  0.70737816  0.26693393     0.40600
H1659       H  0.10916201  0.76693710  0.34726715     0.40200
H1660       H  0.13495312  0.73898779  0.35802177     0.35100
C1661       C  0.29302024  0.00858065  0.31994438    -0.26700
C1662       C  0.31416779  0.98145538  0.32397679    -0.14700
C1663       C  0.34428580  0.98028241  0.31460995     0.35900
C1664       C  0.35370321  0.50728959  0.30316528    -0.26100
C1665       C  0.33137105  0.53284742  0.29817473    -0.15400
C1666       C  0.30020919  0.53178175  0.30627437     0.37000
N1667       N  0.27670691  0.55693547  0.30068332    -0.89600
H1668       H  0.26979992  0.00931009  0.32715030     0.18100
H1669       H  0.37749749  0.50802530  0.29672396     0.18100
N1670       N  0.36636375  0.95306280  0.31900127    -0.88600
H1671       H  0.25498575  0.55256177  0.30798233     0.35500
H1672       H  0.27218523  0.55385189  0.28571517     0.40600
H1673       H  0.37274972  0.95525590  0.33376588     0.40200
H1674       H  0.38748715  0.95589488  0.31084168     0.35100
C1675       C  0.30414909  0.71372058  0.30448335    -0.26700
C1676       C  0.33569477  0.71143875  0.29743931    -0.14700
C1677       C  0.35854218  0.73582496  0.30331729     0.35900
C1678       C  0.34930253  0.76211574  0.31624362    -0.26100
C1679       C  0.31784259  0.76398225  0.32349672    -0.15400
C1680       C  0.29495805  0.73978158  0.31744346     0.37000
N1681       N  0.26248197  0.74176459  0.32457690    -0.89600
H1682       H  0.28666050  0.69512864  0.29975992     0.18100
H1683       H  0.36674204  0.78076729  0.32095313     0.18100
N1684       N  0.39097339  0.73358334  0.29618589    -0.88600
H1685       H  0.24870559  0.72195442  0.31884200     0.35500
H1686       H  0.25248119  0.76453133  0.31930420     0.40600
H1687       H  0.40085409  0.71084101  0.30158166     0.40200
H1688       H  0.40477632  0.75343833  0.30184240     0.35100
C1689       C  0.07470937  0.70877272  0.56485395    -0.26700
C1690       C  0.07471461  0.73486399  0.55065015    -0.14700
C1691       C  0.10229871  0.75536484  0.54847950     0.35900
C1692       C  0.13020401  0.74736619  0.55899779    -0.26100
C1693       C  0.13087934  0.71968200  0.57204305    -0.15400
C1694       C  0.10226867  0.70142973  0.57591401     0.37000
N1695       N  0.10056178  0.67473620  0.59044611    -0.89600
H1696       H  0.05360506  0.69304480  0.56679194     0.18100
H1697       H  0.15191331  0.76173894  0.55616905     0.18100
N1698       N  0.10249895  0.78323105  0.53478169    -0.88600
H1699       H  0.08356151  0.68214697  0.60093312     0.35500
H1700       H  0.12221170  0.67195906  0.59793062     0.40600
H1701       H  0.10817212  0.80545341  0.54243606     0.40200
H1702       H  0.12073070  0.77879430  0.52450467     0.35100
C1703       C  0.38746410  0.75558252  0.55954984    -0.26700
C1704       C  0.40660765  0.73046698  0.55058000    -0.14700
C1705       C  0.39887563  0.69567190  0.55324403     0.35900
C1706       C  0.37130313  0.68691863  0.56378180    -0.26100
C1707       C  0.35108928  0.71185702  0.57189739    -0.15400
C1708       C  0.35981654  0.74658478  0.57040810     0.37000
N1709       N  0.33955776  0.77260447  0.57868296    -0.89600
H1710       H  0.39333602  0.78224301  0.55731486     0.18100
H1711       H  0.36497774  0.66023881  0.56502934     0.18100
N1712       N  0.41742321  0.66861437  0.54456719    -0.88600
H1713       H  0.34855674  0.79684042  0.57537529     0.35500
H1714       H  0.34059567  0.77005381  0.59394671     0.40600
H1715       H  0.43841042  0.67739078  0.53791022     0.40200
H1716       H  0.40346011  0.65776660  0.53353627     0.35100
C1717       C  0.08591385  0.79598883  0.45634396    -0.26700
C1718       C  0.07566163  0.76252960  0.45337792    -0.14700
C1719       C  0.09174136  0.74163782  0.43969967     0.35900
C1720       C  0.11907218  0.75441719  0.42986437    -0.26100
C1721       C  0.13016082  0.78769787  0.43341900    -0.15400
C1722       C  0.11249686  0.80910133  0.44630550     0.37000
N1723       N  0.12141413  0.84416504  0.44917838    -0.89600
H1724       H  0.07294687  0.81199979  0.46664335     0.18100
H1725       H  0.13212592  0.73813363  0.41977795     0.18100
N1726       N  0.08020016  0.70783007  0.43581331    -0.88600
H1727       H  0.10628822  0.85595213  0.45940698     0.35500
H1728       H  0.11791090  0.85701402  0.43586370     0.40600
H1729       H  0.08256023  0.69335935  0.44864566     0.40200
H1730       H  0.09450765  0.69597936  0.42517918     0.35100
C1731       C  0.39815889  0.80501050  0.45024308    -0.26700
C1732       C  0.40592591  0.77022419  0.45119024    -0.14700
C1733       C  0.38695707  0.74646023  0.44081272     0.35900
C1734       C  0.35937834  0.75797559  0.43095538    -0.26100
C1735       C  0.35034874  0.79254551  0.43125209    -0.15400
C1736       C  0.37078670  0.81650312  0.44023667     0.37000
N1737       N  0.36346289  0.85238834  0.43941286    -0.89600
H1738       H  0.41300469  0.82316572  0.45795595     0.18100
H1739       H  0.34409441  0.73950279  0.42384399     0.18100
N1740       N  0.39397062  0.71047979  0.44079677    -0.88600
H1741       H  0.36460963  0.85999510  0.42469592     0.35500
H1742       H  0.38087332  0.86645624  0.44680054     0.40600
H1743       H  0.41493472  0.70496196  0.44852091     0.40200
H1744       H  0.39834936  0.70335275  0.42626075     0.35100
C1745       C  0.07876706  0.57568628  0.54504035    -0.26700
C1746       C  0.06946660  0.54144387  0.54511950    -0.14700
C1747       C  0.08768257  0.51714940  0.55559644     0.35900
C1748       C  0.11559925  0.52758726  0.56542414    -0.26100
C1749       C  0.12625349  0.56153953  0.56424194    -0.15400
C1750       C  0.10725813  0.58583173  0.55390674     0.37000
N1751       N  0.11639792  0.62083218  0.55169821    -0.89600
H1752       H  0.06490357  0.59426862  0.53678048     0.18100
H1753       H  0.12833165  0.01235684  0.57368017     0.18100
N1754       N  0.07649347  0.98714569  0.55554350    -0.88600
H1755       H  0.13721489  0.62208317  0.54314797     0.35500
H1756       H  0.12096189  0.63078703  0.56556660     0.40600
H1757       H  0.05413823  0.98676823  0.56252572     0.40200
H1758       H  0.09178085  0.97204212  0.56410111     0.35100
C1759       C  0.38028473  0.50678872  0.55328221    -0.26700
C1760       C  0.40198275  0.53242418  0.54759199    -0.14700
C1761       C  0.39622105  0.56648739  0.55343823     0.35900
C1762       C  0.36791207  0.57439657  0.56347695    -0.26100
C1763       C  0.34517346  0.54932154  0.56800940    -0.15400
C1764       C  0.35186118  0.51490344  0.56356024     0.37000
N1765       N  0.33065269  0.99408104  0.56464396    -0.89600
H1766       H  0.38613567  0.98716783  0.54476190     0.18100
H1767       H  0.36309915  0.60074733  0.56721389     0.18100
N1768       N  0.41752507  0.59403290  0.54861307    -0.88600
H1769       H  0.33878783  0.97056846  0.55933470     0.35500
H1770       H  0.30840709  0.49314995  0.56043577     0.40600
H1771       H  0.43697039  0.58626238  0.54006312     0.40200
H1772       H  0.42687685  0.60320557  0.56177898     0.35100
C1773       C  0.09130050  0.95568130  0.46178912    -0.26700
C1774       C  0.07191283  0.97924885  0.45176623    -0.14700
C1775       C  0.08085249  0.98949739  0.43252289     0.35900
C1776       C  0.10895620  0.97582628  0.42398709    -0.26100
C1777       C  0.12870958  0.95264687  0.43426463    -0.15400
C1778       C  0.11978812  0.94293208  0.45356243     0.37000
N1779       N  0.14015454  0.92107756  0.46512477    -0.89600
H1780       H  0.08472657  0.94825521  0.47661318     0.18100
H1781       H  0.11555033  0.98372815  0.40925636     0.18100
N1782       N  0.06285882  0.01436307  0.42150102    -0.88600
H1783       H  0.12968727  0.91578251  0.47876878     0.35500
H1784       H  0.16118809  0.93458430  0.46799368     0.40600
H1785       H  0.04327057  0.02361666  0.42945571     0.40200
H1786       H  0.05365520  0.00210654  0.40915745     0.35100
C1787       C  0.36320614  0.97663013  0.42481822    -0.26700
C1788       C  0.34435862  0.95196984  0.43446762    -0.14700
C1789       C  0.35450744  0.93933724  0.45297581     0.35900
C1790       C  0.38316435  0.95111538  0.46107501    -0.26100
C1791       C  0.40136212  0.97645887  0.45180265    -0.15400
C1792       C  0.39140510  0.98934023  0.43333331     0.37000
N1793       N  0.40840602  0.01599868  0.42317957    -0.89600
H1794       H  0.35572894  0.98658558  0.41068945     0.18100
H1795       H  0.39068975  0.94164611  0.47531636     0.18100
N1796       N  0.33529120  0.91543113  0.46392043    -0.88600
H1797       H  0.41715850  0.00577905  0.41005038     0.35500
H1798       H  0.42826896  0.02423642  0.43108281     0.40600
H1799       H  0.31438629  0.92820659  0.46827267     0.40200
H1800       H  0.34685189  0.90785495  0.47682452     0.35100
N1801       N  0.93742025  0.51011857  0.49851447    -0.37000
N1802       N  0.48563202  0.49626171  0.46823215    -0.57500
N1803       N  0.53521952  0.01434266  0.49490945    -0.36900
N1804       N  0.48753334  0.02980267  0.52456150    -0.57500
C1805       C  0.91936111  0.50991001  0.48208039     0.26600
C1806       C  0.91994241  0.02528433  0.51255279     0.26600
C1807       C  0.55179545  0.50911837  0.48097917     0.26600
C1808       C  0.55370579  0.03017416  0.50834517     0.26600
C1809       C  0.95941815  0.48552166  0.45893273     0.35200
C1810       C  0.51159120  0.48316858  0.45895058     0.35300
C1811       C  0.96137818  0.02999146  0.53855099     0.35200
C1812       C  0.51393745  0.03315630  0.53574897     0.35300
C1813       C  0.88949330  0.52404546  0.48605136    -0.22200
C1814       C  0.88960958  0.03232783  0.50522141    -0.22200
C1815       C  0.58158950  0.52347604  0.48422511    -0.22200
C1816       C  0.58355198  0.03706549  0.50013648    -0.22200
C1817       C  0.96861229  0.46490896  0.44341223    -0.23300
C1818       C  0.50209149  0.46241481  0.44364536    -0.23300
C1819       C  0.97148937  0.03401596  0.55774652    -0.23300
C1820       C  0.50525405  0.03614842  0.55533216    -0.23300
C1821       C  0.92741564  0.49295691  0.46445649    -0.18600
C1822       C  0.92906458  0.02993339  0.53236602    -0.18600
C1823       C  0.54547493  0.03581654  0.52828771    -0.18600
C1824       C  0.54364772  0.49056499  0.46396708    -0.18600
H1825       H  0.86946870  0.52661994  0.47608468     0.14300
H1826       H  0.86933325  0.04314715  0.51301890     0.14300
H1827       H  0.60162744  0.52468611  0.47409495     0.14300
H1828       H  0.60407532  0.04847931  0.50716543     0.14300
H1829       H  0.95313991  0.45145903  0.43337920     0.12600
H1830       H  0.51733171  0.44863356  0.43348743     0.12600
H1831       H  0.95667055  0.03588918  0.57078023     0.12600
H1832       H  0.52091725  0.04001569  0.56774111     0.12600
H1833       H  0.95885929  0.49696323  0.50042698     0.25800
H1834       H  0.51374535  0.00195716  0.49771216     0.25800
N1835       N  0.53827686  0.24740823  0.50101613    -0.37000
N1836       N  0.99007401  0.25499949  0.47080795    -0.57500
N1837       N  0.94188792  0.25157745  0.50162644    -0.36900
N1838       N  0.99100070  0.24056315  0.53131591    -0.57500
C1839       C  0.55584539  0.24286648  0.48447332     0.26600
C1840       C  0.55589562  0.23538338  0.51619778     0.26600
C1841       C  0.92350081  0.24969060  0.48532886     0.26600
C1842       C  0.92378331  0.24066179  0.51693814     0.26600
C1843       C  0.51641922  0.26493659  0.46024466     0.35200
C1844       C  0.96446148  0.26650419  0.46063207     0.35300
C1845       C  0.51634316  0.24391658  0.54321446     0.35200
C1846       C  0.96512347  0.24363372  0.54318270     0.35300
C1847       C  0.58494823  0.22776271  0.48920680    -0.22200
C1848       C  0.58473205  0.22244742  0.50913029    -0.22200
C1849       C  0.89331556  0.23773431  0.49037396    -0.22200
C1850       C  0.89357033  0.23176936  0.51025125    -0.31400
C1851       C  0.50802622  0.28063220  0.44271558    -0.23300
C1852       C  0.97431970  0.28185058  0.44327140    -0.23300
C1853       C  0.50708839  0.24632602  0.56273555    -0.23300
C1854       C  0.97479949  0.24691309  0.56249910    -0.23300
C1855       C  0.54794147  0.25593584  0.46572235    -0.18600
C1856       C  0.54812618  0.23876074  0.53639369    -0.18600
C1857       C  0.93300066  0.24046987  0.53694522    -0.18600
C1858       C  0.93231254  0.26159275  0.46643431    -0.18600
H1859       H  0.60479265  0.22205522  0.47948112     0.14300
H1860       H  0.60420381  0.21146865  0.51754548     0.14300
H1861       H  0.87296680  0.23409525  0.48083391     0.14300
H1862       H  0.87347158  0.22258072  0.51884720     0.14300
H1863       H  0.52382011  0.28858558  0.43091956     0.12600
H1864       H  0.95939757  0.29293282  0.43193130     0.12600
H1865       H  0.52234715  0.24620410  0.57553535     0.12600
H1866       H  0.95963220  0.24909230  0.57536696     0.12600
H1867       H  0.51794499  0.26267526  0.50219726     0.25800
H1868       H  0.96395271  0.26361659  0.50258853     0.25800
N1869       N  0.77772566  0.30720580  0.40699782    -0.06500
N1870       N  0.80417996  0.28873288  0.40916656    -0.58600
N1871       N  0.70273876  0.32889971  0.42030656    -0.06100
N1872       N  0.67746800  0.32627034  0.43175880    -0.60700
N1873       N  0.70266520  0.30509309  0.40681104    -0.05700
N1874       N  0.67689990  0.28562745  0.40884572    -0.58600
N1875       N  0.77632621  0.33111504  0.42043493    -0.05400
N1876       N  0.80157349  0.32960717  0.43193685    -0.61100
C1877       C  0.81886322  0.30322718  0.42477219     0.95700
C1878       C  0.66135386  0.29944400  0.42449129     0.95500
N1879       N  0.69856826  0.43194345  0.40729087    -0.06700
N1880       N  0.67255493  0.45099775  0.40987927    -0.59200
N1881       N  0.77360803  0.40983317  0.42083000    -0.04800
N1882       N  0.79805238  0.41282807  0.43279508    -0.60400
N1883       N  0.77374912  0.43433095  0.40762881    -0.06700
N1884       N  0.79862358  0.45469562  0.41045018    -0.59400
N1885       N  0.69971239  0.40765935  0.42062726    -0.04400
N1886       N  0.67474483  0.40960071  0.43248701    -0.60500
Mn1887     Mn  0.73810560  0.36934171  0.42107031     1.18400
C1888       C  0.65794182  0.43679606  0.42578615     0.97800
C1889       C  0.81347548  0.44097022  0.42638791     0.98500
N1890       N  0.70448154  0.30498680  0.36051852    -0.06700
N1891       N  0.68581740  0.27922515  0.35579408    -0.63000
N1892       N  0.77691114  0.33049262  0.34677264    -0.05500
N1893       N  0.79562831  0.32120352  0.33199509    -0.63700
N1894       N  0.77719584  0.30678139  0.36054794    -0.06200
N1895       N  0.79618379  0.28134665  0.35536529    -0.63300
N1896       N  0.70416419  0.32846917  0.34660531    -0.05100
N1897       N  0.68549008  0.31857934  0.33208389    -0.64000
Mn1898     Mn  0.74054789  0.30500231  0.38390005     1.10700
C1899       C  0.67369201  0.28801858  0.33811949     0.99000
C1900       C  0.80786738  0.29058283  0.33758616     0.99100
N1901       N  0.77342464  0.43626772  0.36126775    -0.06200
N1902       N  0.79165002  0.46256450  0.35668790    -0.61600
N1903       N  0.70225459  0.41148587  0.34666691    -0.05500
N1904       N  0.68497200  0.42203772  0.33157296    -0.58300
N1905       N  0.70090958  0.43428421  0.36081715    -0.06800
N1906       N  0.68240905  0.46017809  0.35564645    -0.61200
N1907       N  0.77485702  0.41305105  0.34735387    -0.05800
N1908       N  0.79415602  0.42346705  0.33309842    -0.58300
Mn1909     Mn  0.73657334  0.43511255  0.38444058     1.20200
Mn1910     Mn  0.73954518  0.37085766  0.34643775     1.10100
Cl1911     Cl  0.73865962  0.37007618  0.38376645    -0.86300
C1912       C  0.80493830  0.45421740  0.33923148     0.96000
C1913       C  0.67220357  0.45221436  0.33745853     0.95800
N1914       N  0.77859742  0.19717642  0.59769232    -0.06500
N1915       N  0.80493868  0.21596288  0.59678163    -0.58600
N1916       N  0.70386749  0.17886019  0.58185163    -0.06100
N1917       N  0.67843506  0.18321595  0.57066174    -0.60700
N1918       N  0.70358501  0.20078519  0.59637574    -0.05700
N1919       N  0.67791583  0.22071378  0.59535307    -0.58600
N1920       N  0.77846605  0.17474728  0.58342812    -0.05400
N1921       N  0.80468338  0.17739277  0.57265810    -0.61100
C1922       C  0.82092191  0.20325795  0.58102121     0.95700
C1923       C  0.66267958  0.20953369  0.57912286     0.95500
N1924       N  0.69803880  0.07480647  0.59058578    -0.06700
N1925       N  0.67144716  0.05773995  0.58674792    -0.59200
N1926       N  0.77464189  0.09605838  0.58009606    -0.04800
N1927       N  0.80072679  0.09406871  0.56921507    -0.60400
N1928       N  0.77279914  0.06988150  0.59219545    -0.06700
N1929       N  0.79771941  0.04925646  0.58962902    -0.59400
N1930       N  0.70101109  0.10056989  0.57830088    -0.04400
N1931       N  0.67678863  0.10166313  0.56600596    -0.60500
Mn1932     Mn  0.73962682  0.13763316  0.58030185     1.18400
C1933       C  0.65835622  0.07500353  0.57137048     0.97800
C1934       C  0.81482493  0.06476582  0.57517685     0.98500
N1935       N  0.70136280  0.19463907  0.64207108    -0.06700
N1936       N  0.68132438  0.21945173  0.64673791    -0.63000
N1937       N  0.77221098  0.16632489  0.65671138    -0.05500
N1938       N  0.79052636  0.17346854  0.67194039    -0.63700
N1939       N  0.77431189  0.19095610  0.64355559    -0.06200
N1940       N  0.79448932  0.21456675  0.64936195    -0.63300
N1941       N  0.69947903  0.16956486  0.65495020    -0.05100
N1942       N  0.67837228  0.17727774  0.66876318    -0.64000
Mn1943     Mn  0.73956338  0.19685534  0.61983954     1.10700
C1944       C  0.66697539  0.20839589  0.66338869     0.99000
C1945       C  0.80478258  0.20340535  0.66699763     0.99100
N1946       N  0.76869817  0.06201952  0.63849039    -0.06200
N1947       N  0.78659439  0.03502053  0.64259919    -0.61600
N1948       N  0.69644566  0.08776126  0.65187725    -0.05500
N1949       N  0.67719723  0.07691715  0.66600744    -0.58300
N1950       N  0.69610678  0.06619366  0.63710353    -0.06800
N1951       N  0.67660279  0.04054380  0.64102102    -0.61200
N1952       N  0.76910159  0.08374468  0.65320615    -0.05800
N1953       N  0.78718653  0.07159281  0.66754790    -0.58300
Mn1954     Mn  0.73378820  0.06720312  0.61433544     1.20200
Mn1955     Mn  0.73435127  0.12685581  0.65462852     1.10100
Cl1956     Cl  0.73687647  0.13205236  0.61738362    -0.86300
C1957       C  0.79859852  0.04150653  0.66061052     0.96000
C1958       C  0.66454313  0.04758539  0.65903278     0.95800
N1959       N  0.69474170  0.99056633  0.99704480    -0.37000
N1960       N  0.74267535  0.99529461  0.96611029    -0.57500
N1961       N  0.79103210  0.98501546  0.99655416    -0.36900
N1962       N  0.74340507  0.47614880  0.02641546    -0.57500
C1963       C  0.67636908  0.99061435  0.98071951     0.26600
C1964       C  0.67654456  0.47838588  0.01170249     0.26600
C1965       C  0.80846636  0.98142213  0.97989126     0.26600
C1966       C  0.80893546  0.47021683  0.01101546     0.26600
C1967       C  0.71734632  0.00902177  0.95652327     0.35200
C1968       C  0.76917654  0.00480526  0.95603104     0.35300
C1969       C  0.71749574  0.47945046  0.03822913     0.35200
C1970       C  0.76956793  0.47750308  0.03805434     0.35300
C1971       C  0.64613748  0.97824362  0.98523024    -0.22200
C1972       C  0.64632428  0.47018519  0.00469595    -0.22200
C1973       C  0.83775860  0.96643334  0.98425459    -0.22200
C1974       C  0.83768312  0.45765036  0.00358213    -0.22200
C1975       C  0.72766498  0.02634228  0.93990660    -0.23300
C1976       C  0.76062501  0.02371085  0.93960690    -0.23300
C1977       C  0.72714819  0.48236904  0.05758412    -0.23300
C1978       C  0.76020297  0.48146768  0.05746030    -0.23300
C1979       C  0.68506503  0.00510619  0.96244687    -0.18600
C1980       C  0.68533329  0.47767301  0.03179329    -0.18600
C1981       C  0.80150300  0.47325396  0.03126750    -0.18600
C1982       C  0.80088831  0.99657893  0.96161228    -0.18600
H1983       H  0.62588614  0.97593108  0.97544729     0.14300
H1984       H  0.62605527  0.46072460  0.01304005     0.14300
H1985       H  0.85736439  0.96136118  0.97420633     0.14300
H1986       H  0.85736933  0.44654701  0.01175765     0.14300
H1987       H  0.71301203  0.03967392  0.92924325     0.12600
H1988       H  0.77647753  0.03471252  0.92868696     0.12600
H1989       H  0.71195795  0.48484503  0.07042408     0.12600
H1990       H  0.77547827  0.48312157  0.07021286     0.12600
H1991       H  0.71673480  0.00268339  0.99844725     0.25800
H1992       H  0.77052626  0.00001146  0.99798193     0.25800
N1993       N  0.69073355  0.25563465  0.99987286    -0.37000
N1994       N  0.73708170  0.24175405  0.96903652    -0.57500
N1995       N  0.78708939  0.25026351  0.99854074    -0.36900
N1996       N  0.74002671  0.26651666  0.02860221    -0.57500
C1997       C  0.67274960  0.25857515  0.98348758     0.26600
C1998       C  0.67387438  0.27011616  0.01464928     0.26600
C1999       C  0.80487553  0.24690509  0.98198006     0.26600
C2000       C  0.80655908  0.26275918  0.01265102     0.26600
C2001       C  0.71005375  0.23110056  0.96008435     0.35200
C2002       C  0.76192230  0.22687620  0.95952953     0.35300
C2003       C  0.71456372  0.26623606  0.04089848     0.35200
C2004       C  0.76646502  0.26717450  0.03991822     0.35300
C2005       C  0.64446811  0.27577909  0.98779903    -0.22200
C2006       C  0.64516263  0.28306911  0.00749447    -0.22200
C2007       C  0.83613409  0.25682654  0.98568773    -0.22200
C2008       C  0.83720882  0.26679289  0.00492922    -0.22200
C2009       C  0.71772569  0.20981404  0.94456607    -0.23300
C2010       C  0.75070069  0.20732797  0.94412481    -0.23300
C2011       C  0.72484301  0.26661877  0.06020441    -0.23300
C2012       C  0.75775669  0.26812785  0.05957213    -0.23300
C2013       C  0.67877180  0.24105591  0.96577739    -0.18600
C2014       C  0.68240106  0.26902083  0.03469902    -0.18600
C2015       C  0.79817871  0.26870344  0.03261239    -0.18600
C2016       C  0.79454652  0.23196076  0.96420823    -0.18600
H2017       H  0.62477695  0.28111627  0.97792879     0.14300
H2018       H  0.62625293  0.29556828  0.01573358     0.14300
H2019       H  0.85642320  0.25620950  0.97575003     0.14300
H2020       H  0.85859595  0.27506765  0.01243273     0.14300
H2021       H  0.70134091  0.19730733  0.93467442     0.12600
H2022       H  0.76476478  0.19256752  0.93379231     0.12600
H2023       H  0.71020841  0.26698276  0.07335386     0.12600
H2024       H  0.77337801  0.26966443  0.07216285     0.12600
H2025       H  0.71052091  0.23965660  0.00156264     0.25800
H2026       H  0.76411281  0.24086135  0.00057744     0.25800
N2027       N  0.95035859  0.18255777  0.90645397    -0.06500
N2028       N  0.92380633  0.20086050  0.90866759    -0.58600
N2029       N  0.02485883  0.16062322  0.92072132    -0.06100
N2030       N  0.54832401  0.16527611  0.93273348    -0.60700
N2031       N  0.02535707  0.18559134  0.90778828    -0.05700
N2032       N  0.54958042  0.20784748  0.91079545    -0.58600
N2033       N  0.95101529  0.15746394  0.91932046    -0.05400
N2034       N  0.92509903  0.15807065  0.93045857    -0.61100
C2035       C  0.90816973  0.18513516  0.92368616     0.95700
C2036       C  0.56377430  0.19376656  0.92682785     0.95500
N2037       N  0.03076235  0.05862836  0.90510727    -0.06700
N2038       N  0.55722878  0.04228053  0.90692332    -0.59200
N2039       N  0.95487878  0.07839852  0.91784900    -0.04800
N2040       N  0.93024908  0.07347027  0.92959559    -0.60400
N2041       N  0.95560543  0.05532838  0.90393630    -0.06700
N2042       N  0.93106956  0.03409767  0.90599958    -0.59400
N2043       N  0.02861351  0.08164368  0.91902063    -0.04400
N2044       N  0.55293108  0.08128064  0.93059894    -0.60500
Mn2045     Mn  0.98979664  0.11952191  0.91975871     1.18400
C2046       C  0.57097957  0.05558609  0.92322049     0.97800
C2047       C  0.91545012  0.04579828  0.92221074     0.98500
N2048       N  0.52608561  0.19317480  0.86083100    -0.06700
N2049       N  0.54248148  0.22089653  0.85630239    -0.63000
N2050       N  0.95589913  0.16592697  0.84553444    -0.05500
N2051       N  0.93883687  0.17713851  0.83047838    -0.63700
N2052       N  0.95395902  0.18786823  0.86009622    -0.06200
N2053       N  0.93524195  0.21379403  0.85525929    -0.63300
N2054       N  0.52833805  0.17066025  0.84657598    -0.05100
N2055       N  0.54642030  0.18292120  0.83220807    -0.64000
Mn2056     Mn  0.98900004  0.18751871  0.88414090     1.10700
C2057       C  0.55550459  0.21416313  0.83851657     0.99000
C2058       C  0.92553732  0.20681156  0.83682277     0.99100
N2059       N  0.95886178  0.05855458  0.85736640    -0.06200
N2060       N  0.94020862  0.03321971  0.85186057    -0.61600
N2061       N  0.53210641  0.08823037  0.84502139    -0.05500
N2062       N  0.55153145  0.08021468  0.83037261    -0.58300
N2063       N  0.53233481  0.06371933  0.85831538    -0.06800
N2064       N  0.55218131  0.03914645  0.85294587    -0.61200
N2065       N  0.95884877  0.08299648  0.84399075    -0.05800
N2066       N  0.94051573  0.07427340  0.82905809    -0.58300
Mn2067     Mn  0.99421472  0.05746773  0.88139385     1.20200
Mn2068     Mn  0.99363621  0.12567796  0.84515877     1.10100
Cl2069     Cl  0.99161595  0.12254618  0.88250198    -0.86300
C2070       C  0.92852356  0.04341273  0.83428457     0.96000
C2071       C  0.56414222  0.04948286  0.83542697     0.95800
N2072       N  0.61801742  0.37821949  0.71705090    -0.37000
N2073       N  0.60308698  0.32744806  0.74725156    -0.57500
N2074       N  0.59048109  0.38093122  0.77511858    -0.36900
N2075       N  0.60732061  0.43160752  0.74554342    -0.57500
C2076       C  0.62954382  0.34930316  0.70879698     0.26600
C2077       C  0.63248319  0.40488435  0.70796923     0.26600
C2078       C  0.59150957  0.35348591  0.78726896     0.26600
C2079       C  0.59330407  0.40910140  0.78635124     0.26600
C2080       C  0.60307930  0.30766018  0.73109883     0.35200
C2081       C  0.58942460  0.30877778  0.76174088     0.35300
C2082       C  0.61132604  0.45102846  0.72929628     0.35200
C2083       C  0.59599276  0.45261497  0.75963627     0.35300
C2084       C  0.65138136  0.35767604  0.69413839    -0.22200
C2085       C  0.65317370  0.39281589  0.69358850    -0.22200
C2086       C  0.59483071  0.36436643  0.80647377    -0.22200
C2087       C  0.59576280  0.39950095  0.80591031    -0.22200
C2088       C  0.58909875  0.27638408  0.73528258    -0.23300
C2089       C  0.58047838  0.27707752  0.75474510    -0.23300
C2090       C  0.60251027  0.48453608  0.73307525    -0.23300
C2091       C  0.59285232  0.48555986  0.75232619    -0.23300
C2092       C  0.61938923  0.31577129  0.71351126    -0.18600
C2093       C  0.62647857  0.43976481  0.71191793    -0.18600
C2094       C  0.59165488  0.44319978  0.77948231    -0.18600
C2095       C  0.58735261  0.31912379  0.78151763    -0.18600
H2096       H  0.66452784  0.34030066  0.68474234     0.14300
H2097       H  0.66802981  0.40776749  0.68375184     0.14300
H2098       H  0.59600491  0.34865356  0.81956111     0.14300
H2099       H  0.59780158  0.41606454  0.81850311     0.14300
H2100       H  0.58625997  0.25497261  0.72546462     0.12600
H2101       H  0.56945454  0.25641630  0.76289649     0.12600
H2102       H  0.59745853  0.00457771  0.72171740     0.12600
H2103       H  0.57802972  0.00695039  0.75859915     0.12600
H2104       H  0.59895457  0.37967046  0.72691961     0.25800
H2105       H  0.58434116  0.38073930  0.76035176     0.25800
N2106       N  0.86284314  0.42842244  0.74870198    -0.37000
N2107       N  0.84555403  0.37457197  0.72183319    -0.57500
N2108       N  0.86575379  0.32433040  0.75092546    -0.36900
N2109       N  0.88094169  0.37793305  0.77845997    -0.57500
C2110       C  0.84617006  0.44638809  0.73505877     0.26600
C2111       C  0.86472640  0.44810555  0.76494131     0.26600
C2112       C  0.85012500  0.30406244  0.73812724     0.26600
C2113       C  0.86989320  0.30603486  0.76763747     0.26600
C2114       C  0.84223286  0.40152233  0.70950185     0.35200
C2115       C  0.84350418  0.34610264  0.71076799     0.35300
C2116       C  0.89204256  0.40650592  0.78711627     0.35200
C2117       C  0.89429589  0.35114211  0.78808857     0.35300
C2118       C  0.83739075  0.47781048  0.74272562    -0.22200
C2119       C  0.84901216  0.47885736  0.76158309    -0.22200
C2120       C  0.84454637  0.27248500  0.74684890    -0.22200
C2121       C  0.85681509  0.27384325  0.76546553    -0.22200
C2122       C  0.83790893  0.39015623  0.69047784    -0.23300
C2123       C  0.83854617  0.35505266  0.69128644    -0.23300
C2124       C  0.91240670  0.39776167  0.80241484    -0.23300
C2125       C  0.91372628  0.36266357  0.80306479    -0.23300
C2126       C  0.84028792  0.43602136  0.71550593    -0.18600
C2127       C  0.88251873  0.44021712  0.78207922    -0.18600
C2128       C  0.88762081  0.31649090  0.78415557    -0.18600
C2129       C  0.84310460  0.31232724  0.71832915    -0.18600
H2130       H  0.82792301  0.99854441  0.73347674     0.14300
H2131       H  0.85058582  0.00066601  0.76957915     0.14300
H2132       H  0.83347669  0.25027291  0.74046001     0.14300
H2133       H  0.85682180  0.25312370  0.77603510     0.14300
H2134       H  0.83389777  0.40551521  0.67746394     0.12600
H2135       H  0.83501744  0.33813553  0.67898359     0.12600
H2136       H  0.92489631  0.41483366  0.81217653     0.12600
H2137       H  0.92728099  0.34738549  0.81341750     0.12600
H2138       H  0.87559986  0.40597825  0.74627173     0.25800
H2139       H  0.87659937  0.34746733  0.74759720     0.25800
N2140       N  0.59385120  0.12043169  0.22368439    -0.37000
N2141       N  0.61435711  0.06775173  0.25089719    -0.57500
N2142       N  0.62971183  0.11981551  0.27981717    -0.36900
N2143       N  0.61192965  0.17259757  0.25177417    -0.57500
C2144       C  0.59452245  0.09299286  0.21166361     0.26600
C2145       C  0.59325885  0.14870333  0.21218964     0.26600
C2146       C  0.64306508  0.09193584  0.28831233     0.26600
C2147       C  0.64214392  0.14762095  0.28867008     0.26600
C2148       C  0.60064905  0.04785089  0.23714722     0.35200
C2149       C  0.61924445  0.04758618  0.26674742     0.35300
C2150       C  0.59630716  0.19230776  0.23854754     0.35200
C2151       C  0.61564512  0.19189034  0.26799600     0.35300
C2152       C  0.59407092  0.10392496  0.19229180    -0.22200
C2153       C  0.59338270  0.13909481  0.19261714    -0.22200
C2154       C  0.66393744  0.10208006  0.30294828    -0.22200
C2155       C  0.66342797  0.13726185  0.30313730    -0.22200
C2156       C  0.59705792  0.01485672  0.24421962    -0.23300
C2157       C  0.60879414  0.01469306  0.26299476    -0.23300
C2158       C  0.59002690  0.22423445  0.24642499    -0.23300
C2159       C  0.60242080  0.22401298  0.26505997    -0.23300
C2160       C  0.59369234  0.05841022  0.21777972    -0.18600
C2161       C  0.58995557  0.18272987  0.21896199    -0.18600
C2162       C  0.63339409  0.18193375  0.28470661    -0.18600
C2163       C  0.63547342  0.05764731  0.28392404    -0.18600
H2164       H  0.59397583  0.08818810  0.17927755     0.14300
H2165       H  0.59253709  0.15569011  0.17988309     0.14300
H2166       H  0.67794920  0.08582053  0.31255958     0.14300
H2167       H  0.67694891  0.15334928  0.31294402     0.14300
H2168       H  0.59956875  0.49197603  0.23432705     0.12600
H2169       H  0.62133150  0.49318340  0.27047574     0.12600
H2170       H  0.57820379  0.24564422  0.23938172     0.12600
H2171       H  0.60211372  0.24520128  0.27520120     0.12600
H2172       H  0.59004465  0.11985601  0.23875556     0.25800
H2173       H  0.61064433  0.11972636  0.27006871     0.25800
N2174       N  0.86406027  0.07027818  0.25052173    -0.37000
N2175       N  0.84626336  0.12294583  0.27824202    -0.57500
N2176       N  0.86770225  0.17393310  0.25048389    -0.36900
N2177       N  0.88402077  0.12144118  0.22250362    -0.57500
C2178       C  0.84589995  0.05256004  0.26349635     0.26600
C2179       C  0.86548478  0.05187872  0.23376933     0.26600
C2180       C  0.85017272  0.19282978  0.26318209     0.26600
C2181       C  0.86957478  0.19184958  0.23352346     0.26600
C2182       C  0.84525226  0.09529125  0.29013269     0.35200
C2183       C  0.84707412  0.15056950  0.29002300     0.35300
C2184       C  0.89633582  0.09334217  0.21388698     0.35200
C2185       C  0.89838055  0.14855677  0.21398414     0.35300
C2186       C  0.83542202  0.02264383  0.25484930    -0.22200
C2187       C  0.84785579  0.02218729  0.23607062    -0.22200
C2188       C  0.84050117  0.22293110  0.25417241    -0.22200
C2189       C  0.85274197  0.22229317  0.23538737    -0.22200
C2190       C  0.84568817  0.10536030  0.30961504    -0.23300
C2191       C  0.84675286  0.14049887  0.30954013    -0.23300
C2192       C  0.91907800  0.10256601  0.19994708    -0.23300
C2193       C  0.92030597  0.13771719  0.19997244    -0.23300
C2194       C  0.84104383  0.06151850  0.28339806    -0.18600
C2195       C  0.88455776  0.06006419  0.21718131    -0.18600
C2196       C  0.88854874  0.18260699  0.21715379    -0.18600
C2197       C  0.84513955  0.18456232  0.28312317    -0.18600
H2198       H  0.82953643  0.49829418  0.26432030     0.14300
H2199       H  0.85166086  0.49804174  0.22796634     0.14300
H2200       H  0.82654030  0.24343640  0.26057747     0.14300
H2201       H  0.85008165  0.24225032  0.22446683     0.14300
H2202       H  0.84470342  0.08914027  0.32250380     0.12600
H2203       H  0.84676517  0.15676289  0.32233750     0.12600
H2204       H  0.93249352  0.08580116  0.19032480     0.12600
H2205       H  0.93479752  0.15348336  0.19036034     0.12600
H2206       H  0.87805748  0.09142006  0.25379291     0.25800
H2207       H  0.88106734  0.15225599  0.25401884     0.25800
N2208       N  0.95138584  0.31348224  0.09321351    -0.06500
N2209       N  0.92424683  0.29654498  0.09077883    -0.58600
N2210       N  0.02811966  0.33288336  0.08075396    -0.06100
N2211       N  0.55421481  0.32865803  0.06976003    -0.60700
N2212       N  0.02624257  0.30850393  0.09403126    -0.05700
N2213       N  0.55069309  0.28682231  0.09215216    -0.58600
N2214       N  0.95409246  0.33742431  0.07973963    -0.05400
N2215       N  0.92911303  0.33744457  0.06802200    -0.61100
C2216       C  0.91055197  0.31197633  0.07496871     0.95700
C2217       C  0.56749610  0.29953054  0.07676532     0.95500
N2218       N  0.03114480  0.43701337  0.09393112    -0.06700
N2219       N  0.55767147  0.45688285  0.09214693    -0.59200
N2220       N  0.95695965  0.41601250  0.07955985    -0.04800
N2221       N  0.93232624  0.41969514  0.06764855    -0.60400
N2222       N  0.95635780  0.43960934  0.09321114    -0.06700
N2223       N  0.93127156  0.46004219  0.09079254    -0.59400
N2224       N  0.03126615  0.41259428  0.08076438    -0.04400
N2225       N  0.55754285  0.41524154  0.06975888    -0.60500
Mn2226     Mn  0.99283271  0.37465987  0.07957968     1.18400
C2227       C  0.57334509  0.44265356  0.07672977     0.97800
C2228       C  0.91669106  0.44735205  0.07468214     0.98500
N2229       N  0.52451529  0.30638423  0.14021496    -0.06700
N2230       N  0.54156534  0.27933824  0.14531430    -0.63000
N2231       N  0.95300251  0.33344063  0.15394104    -0.05500
N2232       N  0.93621016  0.32296978  0.16929402    -0.63700
N2233       N  0.95172102  0.31046441  0.13991228    -0.06200
N2234       N  0.93395562  0.28434514  0.14552728    -0.63300
N2235       N  0.52625698  0.33001633  0.15386086    -0.05100
N2236       N  0.54456403  0.31921444  0.16844040    -0.64000
Mn2237     Mn  0.98812628  0.30900234  0.11659666     1.10700
C2238       C  0.55450668  0.28776730  0.16278547     0.99000
C2239       C  0.92427529  0.29231706  0.16390833     0.99100
N2240       N  0.95580952  0.43962283  0.13994562    -0.06200
N2241       N  0.93717505  0.46545856  0.14517880    -0.61600
N2242       N  0.52910023  0.41271344  0.15413654    -0.05500
N2243       N  0.54839744  0.42109832  0.16866301    -0.58300
N2244       N  0.52991626  0.43647669  0.14041863    -0.06800
N2245       N  0.55005029  0.46085508  0.14525624    -0.61200
N2246       N  0.95501554  0.41549401  0.15347848    -0.05800
N2247       N  0.93582860  0.42457880  0.16799532    -0.58300
Mn2248     Mn  0.99288058  0.43926134  0.11660901     1.20200
Mn2249     Mn  0.99045169  0.37345323  0.15412256     1.10100
Cl2250     Cl  0.99105612  0.37407694  0.11683563    -0.86300
C2251       C  0.92463002  0.45572773  0.16269785     0.96000
C2252       C  0.56179457  0.45099559  0.16284315     0.95800
C2253       C  0.88715083  0.50232689  0.17258041    -0.26700
C2254       C  0.91315986  0.48096338  0.17727641    -0.14700
C2255       C  0.92912874  0.48532337  0.19537483     0.35900
C2256       C  0.91363057  0.00620138  0.20960112    -0.26100
C2257       C  0.89326292  0.03241655  0.20315513    -0.15400
C2258       C  0.88159968  0.03192853  0.18373452     0.37000
N2259       N  0.85863855  0.05706855  0.17731859    -0.89600
H2260       H  0.87497853  0.49897858  0.15870577     0.18100
H2261       H  0.92220042  0.00654409  0.22459410     0.18100
N2262       N  0.95636980  0.46445716  0.20038535    -0.88600
H2263       H  0.85118480  0.05192344  0.16301066     0.35500
H2264       H  0.87006468  0.08071916  0.17672856     0.40600
H2265       H  0.94785970  0.44003270  0.20369176     0.40200
H2266       H  0.95207370  0.95893734  0.21836484     0.35100
C2267       C  0.91650308  0.23701852  0.20992527    -0.26700
C2268       C  0.89787272  0.20992725  0.20297036    -0.14700
C2269       C  0.88732361  0.21051991  0.18323269     0.35900
C2270       C  0.89615272  0.23785159  0.17102673    -0.26100
C2271       C  0.91422663  0.26536482  0.17806317    -0.15400
C2272       C  0.92442756  0.26494931  0.19785884     0.37000
N2273       N  0.94349559  0.29221813  0.20559064    -0.89600
H2274       H  0.92447121  0.23655768  0.22504901     0.18100
H2275       H  0.88827269  0.23785783  0.15588703     0.18100
N2276       N  0.86681433  0.18473481  0.17518680    -0.88600
H2277       H  0.95093331  0.28656533  0.21988059     0.35500
H2278       H  0.92863661  0.31369770  0.20670194     0.40600
H2279       H  0.85899343  0.16733306  0.18576872     0.40200
H2280       H  0.88015255  0.17113079  0.16478230     0.35100
C2281       C  0.60363391  0.48756304  0.17769552    -0.26700
C2282       C  0.57160132  0.47702968  0.17709802    -0.14700
C2283       C  0.54847744  0.49349183  0.18893928     0.35900
C2284       C  0.55310783  0.02679667  0.19852826    -0.26100
C2285       C  0.58551412  0.03168741  0.20313925    -0.15400
C2286       C  0.60907677  0.01004366  0.19462920     0.37000
N2287       N  0.64276292  0.01383734  0.19844549    -0.89600
H2288       H  0.62125566  0.47526428  0.16832997     0.18100
H2289       H  0.53513000  0.04316963  0.20518887     0.18100
N2290       N  0.51540635  0.48329594  0.18818882    -0.88600
H2291       H  0.65047516  0.99192981  0.20590418     0.35500
H2292       H  0.64736014  0.03454789  0.20757086     0.40600
H2293       H  0.01239167  0.50639586  0.16408712     0.40200
H2294       H  0.00168139  0.51956851  0.18648056     0.35100
C2295       C  0.60209975  0.23586392  0.20003244    -0.26700
C2296       C  0.58016226  0.20985748  0.20469515    -0.14700
C2297       C  0.54965326  0.21003241  0.19560724     0.35900
C2298       C  0.54241383  0.23546246  0.18177611    -0.26100
C2299       C  0.56433145  0.26142279  0.17714564    -0.15400
C2300       C  0.59446318  0.26186988  0.18657826     0.37000
N2301       N  0.61820466  0.28750147  0.18250553    -0.89600
H2302       H  0.62548313  0.23588659  0.20692442     0.18100
H2303       H  0.51900878  0.23541433  0.17489759     0.18100
N2304       N  0.52510912  0.18563036  0.20039033    -0.88600
H2305       H  0.62173053  0.30129783  0.19540891     0.35500
H2306       H  0.61045869  0.30494180  0.17189851     0.40600
H2307       H  0.53175565  0.16950941  0.21191332     0.40200
H2308       H  0.02412797  0.16975816  0.18688590     0.35100
C2309       C  0.60209910  0.01470033  0.81542911    -0.26700
C2310       C  0.57050611  0.02372192  0.82022749    -0.14700
C2311       C  0.54470815  0.00704364  0.81102262     0.35900
C2312       C  0.55368211  0.48235686  0.79593152    -0.26100
C2313       C  0.58532292  0.47070194  0.79388622    -0.15400
C2314       C  0.61000895  0.48576080  0.80510973     0.37000
N2315       N  0.64302082  0.47527916  0.80350743    -0.89600
H2316       H  0.62186484  0.02767364  0.82243624     0.18100
H2317       H  0.53497463  0.47090366  0.78717640     0.18100
N2318       N  0.01078132  0.01521761  0.81498137    -0.88600
H2319       H  0.65607295  0.49620125  0.79830800     0.35500
H2320       H  0.64612996  0.45587563  0.79322347     0.40600
H2321       H  0.00564793  0.00828074  0.82948512     0.40200
H2322       H  0.99480461  0.00164625  0.80621299     0.35100
C2323       C  0.59370546  0.24080566  0.81485586    -0.26700
C2324       C  0.56400416  0.24177884  0.82455860    -0.14700
C2325       C  0.54218201  0.26855233  0.82038920     0.35900
C2326       C  0.55061605  0.29384783  0.80661362    -0.26100
C2327       C  0.58025076  0.29282827  0.79684288    -0.15400
C2328       C  0.60223209  0.26633610  0.80118089     0.37000
N2329       N  0.63298289  0.26544797  0.79157928    -0.89600
H2330       H  0.61032567  0.22019924  0.81806658     0.18100
H2331       H  0.53377626  0.31413029  0.80315055     0.18100
N2332       N  0.51126488  0.26951908  0.82981867    -0.88600
H2333       H  0.64628533  0.24429863  0.79632601     0.35500
H2334       H  0.64561335  0.28711205  0.79593918     0.40600
H2335       H  0.00165271  0.25147441  0.82834114     0.40200
H2336       H  0.00545662  0.29400184  0.82927893     0.35100
C2337       C  0.88062605  0.46935491  0.81478209    -0.26700
C2338       C  0.89179654  0.46885147  0.79531290    -0.14700
C2339       C  0.91222068  0.49515441  0.78863052     0.35900
C2340       C  0.92549911  0.01894390  0.80061217    -0.26100
C2341       C  0.91459499  0.01899739  0.82014702    -0.15400
C2342       C  0.89050135  0.49484420  0.82791898     0.37000
N2343       N  0.87937754  0.49453447  0.84791913    -0.89600
H2344       H  0.86459813  0.44939967  0.81979591     0.18100
H2345       H  0.94268276  0.03795738  0.79584636     0.18100
N2346       N  0.92399114  0.49500992  0.76876382    -0.88600
H2347       H  0.86416991  0.47379230  0.85042398     0.35500
H2348       H  0.86740781  0.01649479  0.84815803     0.40600
H2349       H  0.93848719  0.47335912  0.76709042     0.40200
H2350       H  0.94458285  0.01278941  0.76552276     0.35100
C2351       C  0.88179584  0.28413511  0.81568449    -0.26700
C2352       C  0.89868279  0.28940684  0.79809073    -0.14700
C2353       C  0.92405862  0.26709355  0.79305308     0.35900
C2354       C  0.93193256  0.23984931  0.80571187    -0.26100
C2355       C  0.91503596  0.23448788  0.82333060    -0.15400
C2356       C  0.88982394  0.25701299  0.82843461     0.37000
N2357       N  0.87173261  0.25157263  0.84617751    -0.89600
H2358       H  0.86200042  0.30100811  0.81931009     0.18100
H2359       H  0.95171923  0.22304608  0.80196071     0.18100
N2360       N  0.94204595  0.27254780  0.77526453    -0.88600
H2361       H  0.85283403  0.26912584  0.84714881     0.35500
H2362       H  0.88680833  0.25665161  0.85800867     0.40600
H2363       H  0.92681601  0.26798732  0.76343708     0.40200
H2364       H  0.96072030  0.25474962  0.77412741     0.35100
C2365       C  0.63108313  0.24906540  0.04958633    -0.26700
C2366       C  0.65611813  0.27297703  0.04935905    -0.14700
C2367       C  0.65345999  0.30253839  0.06084247     0.35900
C2368       C  0.62511714  0.30869366  0.07139470    -0.26100
C2369       C  0.59887236  0.28664117  0.07001807    -0.15400
C2370       C  0.60228143  0.25564371  0.05961273     0.37000
N2371       N  0.57684749  0.23113070  0.05808754    -0.89600
H2372       H  0.63318321  0.22611638  0.04083302     0.18100
H2373       H  0.62295264  0.33145333  0.08017487     0.18100
N2374       N  0.67884433  0.32707235  0.06093254    -0.88600
H2375       H  0.56989053  0.23022114  0.04337690     0.35500
H2376       H  0.55666152  0.23839406  0.06615785     0.40600
H2377       H  0.67040033  0.34984873  0.05481473     0.40200
H2378       H  0.68530339  0.33159797  0.07549049     0.35100
C2379       C  0.83652729  0.31289348  0.04260915    -0.26700
C2380       C  0.82405434  0.28028121  0.04598996    -0.14700
C2381       C  0.83841989  0.25899311  0.06039766     0.35900
C2382       C  0.86550547  0.27071466  0.07052998    -0.26100
C2383       C  0.87946299  0.30240434  0.06598997    -0.15400
C2384       C  0.86443690  0.32373128  0.05191044     0.37000
N2385       N  0.87786491  0.35598576  0.04635565    -0.89600
H2386       H  0.82561377  0.32930507  0.03162150     0.18100
H2387       H  0.87670270  0.25405763  0.08126043     0.18100
N2388       N  0.82729532  0.22499647  0.06450489    -0.88600
H2389       H  0.86018496  0.37470417  0.04815798     0.35500
H2390       H  0.88355449  0.35503327  0.03140523     0.40600
H2391       H  0.80812997  0.21826722  0.05555455     0.40200
H2392       H  0.81884598  0.22457622  0.07897562     0.35100
C2393       C  0.62882107  0.20738656  0.96469225    -0.26700
C2394       C  0.65026175  0.22882425  0.95472803    -0.14700
C2395       C  0.64292945  0.23982863  0.93550214     0.35900
C2396       C  0.61449455  0.22830360  0.92650190    -0.26100
C2397       C  0.59309593  0.20666372  0.93658845    -0.15400
C2398       C  0.60024285  0.19686626  0.95606060     0.37000
N2399       N  0.57799686  0.17727353  0.96751879    -0.89600
H2400       H  0.63396003  0.19943343  0.97962158     0.18100
H2401       H  0.60905511  0.23620849  0.91162380     0.18100
N2402       N  0.66412375  0.26277798  0.92534097    -0.88600
H2403       H  0.57145357  0.19171255  0.97978205     0.35500
H2404       H  0.58976922  0.15536246  0.97256164     0.40600
H2405       H  0.66425059  0.28577067  0.93307837     0.40200
H2406       H  0.65529636  0.26837724  0.91134846     0.35100
C2407       C  0.83010688  0.18549831  0.95285511    -0.26700
C2408       C  0.81991005  0.21933711  0.95059347    -0.14700
C2409       C  0.83721783  0.24140226  0.93788464     0.35900
C2410       C  0.86535187  0.22941492  0.92871081    -0.26100
C2411       C  0.87662055  0.19598177  0.93191194    -0.15400
C2412       C  0.85806489  0.17363232  0.94364187     0.37000
N2413       N  0.86754143  0.13880447  0.94642660    -0.89600
H2414       H  0.81693411  0.16848255  0.96252426     0.18100
H2415       H  0.87909092  0.24682208  0.91960794     0.18100
N2416       N  0.82792119  0.27639973  0.93474601    -0.88600
H2417       H  0.84888039  0.12330528  0.94153480     0.35500
H2418       H  0.87042365  0.13450406  0.96147693     0.40600
H2419       H  0.80666369  0.28231853  0.94214833     0.40200
H2420       H  0.82305261  0.27940424  0.91979802     0.35100
C2421       C  0.60913446  0.48763991  0.06252316    -0.26700
C2422       C  0.60467843  0.45383417  0.06878598    -0.14700
C2423       C  0.62873329  0.42951723  0.06498234     0.35900
C2424       C  0.65596733  0.43844107  0.05405635    -0.26100
C2425       C  0.65945039  0.47149275  0.04651493    -0.15400
C2426       C  0.63616977  0.49665435  0.05109056     0.37000
N2427       N  0.63970151  0.53090491  0.04375225    -0.89600
H2428       H  0.59056164  0.50640149  0.06541769     0.18100
H2429       H  0.67367406  0.41901548  0.05057941     0.18100
N2430       N  0.62488455  0.39522214  0.07167798    -0.88600
H2431       H  0.62093678  0.54636816  0.04882188     0.35500
H2432       H  0.63756411  0.53021566  0.02849128     0.40600
H2433       H  0.64501038  0.38863259  0.07999270     0.40200
H2434       H  0.62400299  0.37971096  0.05925871     0.35100
C2435       C  0.88309431  0.48659630  0.05477282    -0.26700
C2436       C  0.88504588  0.45824369  0.06730148    -0.14700
C2437       C  0.85774944  0.43770199  0.07034034     0.35900
C2438       C  0.82989102  0.44391843  0.05921014    -0.26100
C2439       C  0.82866316  0.47085920  0.04554433    -0.15400
C2440       C  0.85502560  0.49329133  0.04407080     0.37000
N2441       N  0.85372855  0.52214521  0.03108663    -0.89600
H2442       H  0.90391368  0.50266611  0.05257155     0.18100
H2443       H  0.80957188  0.42692850  0.06062789     0.18100
N2444       N  0.85842282  0.41074776  0.08475572    -0.88600
H2445       H  0.87240980  0.51983728  0.02088120     0.35500
H2446       H  0.85776160  0.54412109  0.03934754     0.40600
H2447       H  0.87561267  0.39273403  0.08053274     0.40200
H2448       H  0.83641180  0.39807074  0.08520446     0.35100
C2449       C  0.61647747  0.01345784  0.92561412    -0.26700
C2450       C  0.60206054  0.04409711  0.93189260    -0.14700
C2451       C  0.61721244  0.06295583  0.94686084     0.35900
C2452       C  0.64513917  0.05032298  0.95571381    -0.26100
C2453       C  0.65868332  0.01910910  0.95005371    -0.15400
C2454       C  0.64444420  0.00059368  0.93457868     0.37000
N2455       N  0.65573315  0.46609569  0.92819358    -0.89600
H2456       H  0.60495064  0.49750554  0.91380504     0.18100
H2457       H  0.65585764  0.06458647  0.96758837     0.18100
N2458       N  0.60429030  0.09490043  0.95335797    -0.88600
H2459       H  0.63812661  0.44814285  0.93173564     0.35500
H2460       H  0.67637560  0.45895889  0.93581605     0.40600
H2461       H  0.62183862  0.11360768  0.95135204     0.40200
H2462       H  0.59943267  0.09285250  0.96838459     0.35100
C2463       C  0.84095253  0.99181020  0.93406127    -0.26700
C2464       C  0.82823534  0.01030268  0.94995957    -0.14700
C2465       C  0.84384101  0.04027668  0.95616122     0.35900
C2466       C  0.87202985  0.05037871  0.94682736    -0.26100
C2467       C  0.88522264  0.03220761  0.93097987    -0.15400
C2468       C  0.86940315  0.00246127  0.92445154     0.37000
N2469       N  0.88235120  0.98291078  0.90846314    -0.89600
H2470       H  0.82914702  0.96856738  0.92953917     0.18100
H2471       H  0.88384340  0.07291512  0.95229998     0.18100
N2472       N  0.83195779  0.06119682  0.97194290    -0.88600
H2473       H  0.86736686  0.96235724  0.90524713     0.35500
H2474       H  0.90408955  0.97235177  0.91315744     0.40600
H2475       H  0.80972128  0.05313361  0.97721581     0.40200
H2476       H  0.84819103  0.05921362  0.98355056     0.35100
C2477       C  0.66780602  0.01609145  0.69057789    -0.26700
C2478       C  0.65287215  0.02008677  0.67225575    -0.14700
C2479       C  0.62904627  0.99636543  0.66662204     0.35900
C2480       C  0.62093094  0.47157039  0.68041931    -0.26100
C2481       C  0.63807296  0.46622347  0.69784955    -0.15400
C2482       C  0.66371845  0.48830783  0.70252146     0.37000
N2483       N  0.68274279  0.48416343  0.71996203    -0.89600
H2484       H  0.68646403  0.03364499  0.69494537     0.18100
H2485       H  0.60105708  0.45494058  0.67693722     0.18100
N2486       N  0.61182249  0.99916305  0.64842583    -0.88600
H2487       H  0.70650891  0.48018128  0.71557456     0.35500
H2488       H  0.67626498  0.46243521  0.72791550     0.40600
H2489       H  0.61811231  0.02108762  0.64060743     0.40200
H2490       H  0.58749918  0.00204373  0.65187419     0.35100
C2491       C  0.62986346  0.25666311  0.66958874    -0.26700
C2492       C  0.65188652  0.23280376  0.67710380    -0.14700
C2493       C  0.66211029  0.23558947  0.69675960     0.35900
C2494       C  0.65102784  0.26297699  0.70814837    -0.26100
C2495       C  0.62926775  0.28704474  0.70058717    -0.15400
C2496       C  0.61794291  0.28339439  0.68115822     0.37000
N2497       N  0.59426259  0.30585276  0.67276857    -0.89600
H2498       H  0.62196303  0.25458785  0.65450457     0.18100
H2499       H  0.65959422  0.26582140  0.72304759     0.18100
N2500       N  0.68488168  0.21175870  0.70482289    -0.88600
H2501       H  0.60532509  0.31963793  0.66146496     0.35500
H2502       H  0.58564374  0.32353200  0.68293097     0.40600
H2503       H  0.67322861  0.18831541  0.70638430     0.40200
H2504       H  0.69161684  0.21902563  0.71895579     0.35100
C2505       C  0.79718058  0.46512598  0.69608785    -0.26700
C2506       C  0.82976405  0.46251509  0.70098968    -0.14700
C2507       C  0.85184220  0.48564267  0.69256929     0.35900
C2508       C  0.84247406  0.00810032  0.67643051    -0.26100
C2509       C  0.80954935  0.01377726  0.67380634    -0.15400
C2510       C  0.78723683  0.99309693  0.68391880     0.37000
N2511       N  0.75340111  0.99898156  0.68155520    -0.89600
H2512       H  0.78028231  0.44751037  0.70270622     0.18100
H2513       H  0.85948356  0.02400649  0.66858520     0.18100
N2514       N  0.88536099  0.48300078  0.69720914    -0.88600
H2515       H  0.74025675  0.98197881  0.69026430     0.35500
H2516       H  0.74757923  0.99353814  0.66700028     0.40600
H2517       H  0.88802493  0.48891740  0.71205158     0.40200
H2518       H  0.89849282  0.50124830  0.68936905     0.35100
C2519       C  0.84560590  0.24399793  0.67878980    -0.26700
C2520       C  0.81576089  0.22832517  0.68154691    -0.14700
C2521       C  0.79471642  0.24060627  0.69612879     0.35900
C2522       C  0.80369184  0.26856072  0.70759354    -0.26100
C2523       C  0.83379084  0.28391045  0.70511666    -0.15400
C2524       C  0.85514292  0.27130479  0.69073140     0.37000
N2525       N  0.88611015  0.28668965  0.68813111    -0.89600
H2526       H  0.86135508  0.23503681  0.66719641     0.18100
H2527       H  0.78723503  0.27818802  0.71863480     0.18100
N2528       N  0.76375329  0.22555866  0.69883240    -0.88600
H2529       H  0.89872076  0.27473381  0.67676509     0.35500
H2530       H  0.89919259  0.28233645  0.70096275     0.40600
H2531       H  0.74642489  0.24457003  0.69665897     0.40200
H2532       H  0.76199363  0.21715272  0.71338135     0.35100
C2533       C  0.67912102  0.98252934  0.30708395    -0.26700
C2534       C  0.66286881  0.47939812  0.32347284    -0.14700
C2535       C  0.63541508  0.50020584  0.32647616     0.35900
C2536       C  0.62899198  0.52695757  0.31329627    -0.26100
C2537       C  0.64526258  0.03048903  0.29795515    -0.15400
C2538       C  0.67202845  0.00946636  0.29413697     0.37000
N2539       N  0.69235310  0.01619721  0.27746898    -0.89600
H2540       H  0.70003979  0.96670046  0.30435103     0.18100
H2541       H  0.60760573  0.54238779  0.31534692     0.18100
N2542       N  0.61338493  0.49487013  0.34249855    -0.88600
H2543       H  0.71176642  0.99921764  0.27722324     0.35500
H2544       H  0.67910566  0.01146782  0.26479330     0.40600
H2545       H  0.61988069  0.47390931  0.35112289     0.40200
H2546       H  0.59105385  0.48902954  0.33648525     0.35100
C2547       C  0.67671122  0.25894234  0.30585681    -0.26700
C2548       C  0.66200526  0.26179957  0.32433954    -0.14700
C2549       C  0.63817744  0.23796094  0.32981371     0.35900
C2550       C  0.62943254  0.21217098  0.31672392    -0.26100
C2551       C  0.64435192  0.20915756  0.29830619    -0.15400
C2552       C  0.66852790  0.23277445  0.29287465     0.37000
N2553       N  0.68590501  0.23053391  0.27464217    -0.89600
H2554       H  0.69557716  0.27652472  0.30168201     0.18100
H2555       H  0.61079045  0.19433526  0.32092148     0.18100
N2556       N  0.62199060  0.23978102  0.34837026    -0.88600
H2557       H  0.67991461  0.25199615  0.26622302     0.35500
H2558       H  0.67951247  0.20909510  0.26655246     0.40600
H2559       H  0.61169640  0.26405061  0.34971741     0.40200
H2560       H  0.63879139  0.23643344  0.35954891     0.35100
C2561       C  0.79358862  0.50714754  0.32043351    -0.26700
C2562       C  0.81524571  0.48092788  0.32527709    -0.14700
C2563       C  0.84614095  0.48073874  0.31690284     0.35900
C2564       C  0.85138089  0.00593847  0.30045511    -0.26100
C2565       C  0.83115771  0.03431387  0.29757694    -0.15400
C2566       C  0.80183043  0.03626448  0.30795444     0.37000
N2567       N  0.78040036  0.06462431  0.30482547    -0.89600
H2568       H  0.76973140  0.50697899  0.32682334     0.18100
H2569       H  0.87387295  0.00452010  0.29246856     0.18100
N2570       N  0.86843798  0.45397967  0.32180216    -0.88600
H2571       H  0.75995111  0.06228579  0.31365923     0.35500
H2572       H  0.77261622  0.06363506  0.29027464     0.40600
H2573       H  0.87356265  0.45599666  0.33675871     0.40200
H2574       H  0.89011829  0.45748328  0.31430473     0.35100
C2575       C  0.80553888  0.21158762  0.30580390    -0.26700
C2576       C  0.83593055  0.21233083  0.29695151    -0.14700
C2577       C  0.85676917  0.23983921  0.30080230     0.35900
C2578       C  0.84694913  0.26577611  0.31379322    -0.26100
C2579       C  0.81690869  0.26440582  0.32304465    -0.15400
C2580       C  0.79569071  0.23748903  0.31869609     0.37000
N2581       N  0.76413169  0.23675108  0.32730332    -0.89600
H2582       H  0.78937475  0.19083060  0.30247098     0.18100
H2583       H  0.86296511  0.28670633  0.31702663     0.18100
N2584       N  0.88780733  0.24113668  0.29157057    -0.88600
H2585       H  0.75154055  0.21526608  0.32261823     0.35500
H2586       H  0.75153519  0.25804549  0.32206785     0.40600
H2587       H  0.90110383  0.22024924  0.29668151     0.40200
H2588       H  0.90011689  0.26306456  0.29584158     0.35100
C2589       C  0.57568902  0.20803117  0.56407648    -0.26700
C2590       C  0.57499339  0.23545480  0.55074078    -0.14700
C2591       C  0.60168777  0.25741054  0.54952506     0.35900
C2592       C  0.62947536  0.24995353  0.56026128    -0.26100
C2593       C  0.63090389  0.22124454  0.57252097    -0.15400
C2594       C  0.60307686  0.20116036  0.57536704     0.37000
N2595       N  0.60206741  0.17312491  0.58906948    -0.89600
H2596       H  0.55524800  0.19113310  0.56522925     0.18100
H2597       H  0.65061759  0.26557832  0.55814477     0.18100
N2598       N  0.60117649  0.28629905  0.53655106    -0.88600
H2599       H  0.58420556  0.17859585  0.59941828     0.35500
H2600       H  0.62344383  0.17097567  0.59690296     0.40600
H2601       H  0.60557044  0.30815456  0.54484290     0.40200
H2602       H  0.61995298  0.28354141  0.52644623     0.35100
C2603       C  0.88596070  0.25791435  0.55775184    -0.26700
C2604       C  0.90777456  0.23253741  0.55180202    -0.14700
C2605       C  0.90274859  0.19852422  0.55776878     0.35900
C2606       C  0.87530871  0.19004629  0.56853603    -0.26100
C2607       C  0.85247477  0.21491980  0.57360247    -0.15400
C2608       C  0.85837718  0.24944493  0.56881835     0.37000
N2609       N  0.83532406  0.27529720  0.57394693    -0.89600
H2610       H  0.88975266  0.28402527  0.55299740     0.18100
H2611       H  0.87109216  0.16357566  0.57229334     0.18100
N2612       N  0.92434668  0.17185998  0.55206152    -0.88600
H2613       H  0.84261847  0.29910756  0.56860759     0.35500
H2614       H  0.83504879  0.27716595  0.58924779     0.40600
H2615       H  0.94712735  0.17743070  0.55747913     0.40200
H2616       H  0.92555351  0.17115238  0.53673743     0.35100
C2617       C  0.58395090  0.30060917  0.45343454    -0.26700
C2618       C  0.57478263  0.26640856  0.45271108    -0.14700
C2619       C  0.59160787  0.24348486  0.44046621     0.35900
C2620       C  0.61937414  0.25487188  0.43052477    -0.26100
C2621       C  0.62975891  0.28880499  0.43235456    -0.15400
C2622       C  0.61065632  0.31230872  0.44300095     0.37000
N2623       N  0.61838604  0.34804788  0.44323600    -0.89600
H2624       H  0.57019015  0.31825346  0.46238120     0.18100
H2625       H  0.63339409  0.23706718  0.42186556     0.18100
N2626       N  0.58032417  0.20913733  0.43803921    -0.88600
H2627       H  0.60171897  0.36161526  0.45168061     0.35500
H2628       H  0.61615544  0.35728260  0.42887717     0.40600
H2629       H  0.58196061  0.19649248  0.45151854     0.40200
H2630       H  0.59516532  0.19583528  0.42828011     0.35100
C2631       C  0.89772892  0.30631025  0.45204457    -0.26700
C2632       C  0.90619618  0.27171755  0.45277846    -0.14700
C2633       C  0.88800939  0.24772061  0.44207373     0.35900
C2634       C  0.86016149  0.25869840  0.43231497    -0.26100
C2635       C  0.85050857  0.29306840  0.43273261    -0.15400
C2636       C  0.87038828  0.31735548  0.44189853     0.37000
N2637       N  0.86262214  0.35313685  0.44102919    -0.89600
H2638       H  0.91214333  0.32467467  0.45990139     0.18100
H2639       H  0.84536002  0.24001614  0.42500644     0.18100
N2640       N  0.89629779  0.21206249  0.44145143    -0.88600
H2641       H  0.86389213  0.36074304  0.42631300     0.35500
H2642       H  0.87974949  0.36746518  0.44849359     0.40600
H2643       H  0.91757414  0.20706847  0.44896939     0.40200
H2644       H  0.90074806  0.20583234  0.42678320     0.35100
C2645       C  0.58188678  0.08030294  0.54091918    -0.26700
C2646       C  0.57151835  0.04643634  0.54169472    -0.14700
C2647       C  0.58849467  0.02235039  0.55307227     0.35900
C2648       C  0.61608071  0.03264642  0.56326286    -0.26100
C2649       C  0.62769379  0.06617729  0.56161171    -0.15400
C2650       C  0.61010043  0.09023490  0.55018741     0.37000
N2651       N  0.62038999  0.12471557  0.54724357    -0.89600
H2652       H  0.56900029  0.09868582  0.53194859     0.18100
H2653       H  0.62998100  0.51102216  0.57256423     0.18100
N2654       N  0.57882545  0.48340287  0.55496277    -0.88600
H2655       H  0.64192363  0.12458153  0.53935250     0.35500
H2656       H  0.62398759  0.13590080  0.56090181     0.40600
H2657       H  0.55699087  0.48104432  0.56241908     0.40200
H2658       H  0.59555922  0.46881561  0.56277010     0.35100
C2659       C  0.88118702  0.01201341  0.55183899    -0.26700
C2660       C  0.90314529  0.03781526  0.54679934    -0.14700
C2661       C  0.89760768  0.07143915  0.55350528     0.35900
C2662       C  0.86942967  0.07879743  0.56384479    -0.26100
C2663       C  0.84642975  0.05363730  0.56767529    -0.15400
C2664       C  0.85271426  0.01962711  0.56218340     0.37000
N2665       N  0.83017609  0.49144684  0.56841493    -0.89600
H2666       H  0.88629092  0.48367707  0.54922188     0.18100
H2667       H  0.86478963  0.10487709  0.56822664     0.18100
N2668       N  0.91901605  0.09915356  0.54931581    -0.88600
H2669       H  0.83939003  0.46749190  0.56460661     0.35500
H2670       H  0.80898651  0.99915903  0.55793859     0.40600
H2671       H  0.93764179  0.09227944  0.53988072     0.40200
H2672       H  0.92946675  0.10618524  0.56261226     0.35100
C2673       C  0.58946668  0.45074093  0.46219461    -0.26700
C2674       C  0.57070139  0.47528895  0.45253078    -0.14700
C2675       C  0.58002512  0.48649443  0.43355130     0.35900
C2676       C  0.60825934  0.47325032  0.42503941    -0.26100
C2677       C  0.62772236  0.44951451  0.43507360    -0.15400
C2678       C  0.61805261  0.43827363  0.45398242     0.37000
N2679       N  0.63769559  0.41513300  0.46519223    -0.89600
H2680       H  0.58239122  0.44239163  0.47677247     0.18100
H2681       H  0.61526821  0.48206577  0.41055364     0.18100
N2682       N  0.56230906  0.51192775  0.42279148    -0.88600
H2683       H  0.62646669  0.40848913  0.47841354     0.35500
H2684       H  0.65861912  0.42813755  0.46894316     0.40600
H2685       H  0.54265657  0.52098578  0.43075551     0.40200
H2686       H  0.55322829  0.50024369  0.41022875     0.35100
C2687       C  0.86146541  0.47955817  0.42633562    -0.26700
C2688       C  0.84314932  0.45414241  0.43573725    -0.14700
C2689       C  0.85363238  0.44115651  0.45408743     0.35900
C2690       C  0.88232021  0.45295260  0.46213432    -0.26100
C2691       C  0.90021889  0.47872672  0.45301558    -0.15400
C2692       C  0.88966835  0.49233765  0.43484686     0.37000
N2693       N  0.90611506  0.51971861  0.42499770    -0.89600
H2694       H  0.85362800  0.48995266  0.41238531     0.18100
H2695       H  0.89015125  0.44306714  0.47622092     0.18100
N2696       N  0.83476732  0.41675981  0.46490440    -0.88600
H2697       H  0.91474947  0.51025460  0.41165463     0.35500
H2698       H  0.92602071  0.52786458  0.43289737     0.40600
H2699       H  0.81374713  0.42915966  0.46940819     0.40200
H2700       H  0.84650654  0.40902243  0.47771520     0.35100
N2701       N  0.93831262  0.01121781  0.49825808    -0.37000
N2702       N  0.48643914  0.99731157  0.46625068    -0.57500
N2703       N  0.53371574  0.51142127  0.49746373    -0.36900
N2704       N  0.48550695  0.52391280  0.52734644    -0.57500
C2705       C  0.91991984  0.00905227  0.48200482     0.26600
C2706       C  0.91928409  0.52411885  0.51292258     0.26600
C2707       C  0.55298053  0.01100285  0.47837009     0.26600
C2708       C  0.55174178  0.52702646  0.51122004     0.26600
C2709       C  0.96055623  0.98481413  0.45911759     0.35200
C2710       C  0.51230491  0.98329533  0.45732142     0.35300
C2711       C  0.96017867  0.52562486  0.53934552     0.35200
C2712       C  0.51174704  0.52777457  0.53861356     0.35300
C2713       C  0.88958692  0.02202263  0.48598307    -0.22200
C2714       C  0.88944320  0.53306171  0.50549516    -0.22200
C2715       C  0.58304892  0.02503326  0.48125169    -0.22200
C2716       C  0.58158329  0.53480284  0.50325009    -0.22200
C2717       C  0.97020028  0.96330445  0.44410380    -0.23300
C2718       C  0.50263224  0.96076823  0.44291081    -0.23300
C2719       C  0.96998443  0.52882834  0.55865580    -0.23300
C2720       C  0.50286883  0.52994209  0.55820502    -0.23300
C2721       C  0.92839639  0.99166761  0.46455773    -0.18600
C2722       C  0.92810966  0.52708715  0.53287257    -0.18600
C2723       C  0.54320192  0.53180267  0.53120632    -0.18600
C2724       C  0.54442990  0.99138295  0.46182768    -0.18600
H2725       H  0.86925311  0.02306933  0.47617015     0.14300
H2726       H  0.86941033  0.54425579  0.51335241     0.14300
H2727       H  0.60299498  0.02537186  0.47102918     0.14300
H2728       H  0.60180931  0.54636439  0.51051362     0.14300
H2729       H  0.95503289  0.94843910  0.43456977     0.12600
H2730       H  0.51777059  0.94584081  0.43324176     0.12600
H2731       H  0.95493581  0.53087714  0.57158438     0.12600
H2732       H  0.51836194  0.53398461  0.57067538     0.12600
H2733       H  0.96038839  0.99935757  0.50021010     0.25800
H2734       H  0.51232585  0.49865905  0.49993068     0.25800
N2735       N  0.53742391  0.74251338  0.50018326    -0.37000
N2736       N  0.99012168  0.75160060  0.47001893    -0.57500
N2737       N  0.94146653  0.75295065  0.50071423    -0.36900
N2738       N  0.98998088  0.74198396  0.53097916    -0.57500
C2739       C  0.55508281  0.73711232  0.48378082     0.26600
C2740       C  0.55500619  0.73135899  0.51560353     0.26600
C2741       C  0.92300042  0.75175567  0.48441549     0.26600
C2742       C  0.92267575  0.74408911  0.51616524     0.26600
C2743       C  0.51589902  0.75753829  0.45899187     0.35200
C2744       C  0.96514484  0.76348671  0.45937909     0.35300
C2745       C  0.51532674  0.74177188  0.54221508     0.35200
C2746       C  0.96398128  0.74601929  0.54261990     0.35300
C2747       C  0.58411757  0.72216600  0.48879890    -0.22200
C2748       C  0.58385973  0.71800173  0.50882409    -0.22200
C2749       C  0.89199764  0.74272315  0.48962275    -0.22200
C2750       C  0.89185187  0.73757166  0.50956072    -0.31400
C2751       C  0.50752865  0.77284956  0.44135712    -0.23300
C2752       C  0.97593512  0.77696963  0.44171886    -0.23300
C2753       C  0.50588729  0.74660916  0.56154263    -0.23300
C2754       C  0.97343627  0.74989358  0.56195007    -0.23300
C2755       C  0.54757503  0.74987238  0.46492518    -0.18600
C2756       C  0.54714608  0.73604440  0.53568940    -0.18600
C2757       C  0.93191718  0.74318038  0.53619847    -0.18600
C2758       C  0.93270095  0.76120983  0.46521058    -0.18600
H2759       H  0.60391774  0.71590386  0.47914378     0.14300
H2760       H  0.60330914  0.70755095  0.51747392     0.14300
H2761       H  0.87143794  0.74029507  0.48011298     0.14300
H2762       H  0.87111430  0.73041812  0.51822889     0.14300
H2763       H  0.52345532  0.78113338  0.42970502     0.12600
H2764       H  0.96166314  0.78796778  0.43004347     0.12600
H2765       H  0.52107826  0.74834999  0.57432926     0.12600
H2766       H  0.95809756  0.75291269  0.57468492     0.12600
H2767       H  0.51711811  0.75791287  0.50101105     0.25800
H2768       H  0.96449313  0.76279057  0.50146954     0.25800
N2769       N  0.77730339  0.80603618  0.40644694    -0.06500
N2770       N  0.80417499  0.78804282  0.40804239    -0.58600
N2771       N  0.70230733  0.82860176  0.41993593    -0.06100
N2772       N  0.67737834  0.82580913  0.43170376    -0.60700
N2773       N  0.70187750  0.80481735  0.40643124    -0.05700
N2774       N  0.67626416  0.78520384  0.40881830    -0.58600
N2775       N  0.77636076  0.83000694  0.41986136    -0.05400
N2776       N  0.80234893  0.82900910  0.43076429    -0.61100
C2777       C  0.81959080  0.80284689  0.42328625     0.95700
C2778       C  0.66109565  0.79885253  0.42467995     0.95500
N2779       N  0.69985906  0.93168601  0.40661642    -0.06700
N2780       N  0.67378232  0.95074842  0.40880725    -0.59200
N2781       N  0.77451206  0.90872752  0.42044833    -0.04800
N2782       N  0.79890640  0.91142813  0.43250400    -0.60400
N2783       N  0.77507173  0.93319671  0.40722053    -0.06700
N2784       N  0.80019286  0.95319892  0.41012043    -0.59400
N2785       N  0.70050070  0.90736864  0.41993784    -0.04400
N2786       N  0.67507597  0.90927366  0.43140686    -0.60500
Mn2787     Mn  0.73841544  0.86862813  0.42060143     1.18400
C2788       C  0.65861665  0.93653481  0.42448377     0.97800
C2789       C  0.81478847  0.93930448  0.42611258     0.98500
N2790       N  0.70380520  0.80501540  0.35987269    -0.06700
N2791       N  0.68413224  0.78010865  0.35505288    -0.63000
N2792       N  0.77727465  0.82966021  0.34661463    -0.05500
N2793       N  0.79731262  0.82070617  0.33242298    -0.63700
N2794       N  0.77691267  0.80598985  0.36040054    -0.06200
N2795       N  0.79689281  0.78105103  0.35591840    -0.63300
N2796       N  0.70419042  0.82866046  0.34606210    -0.05100
N2797       N  0.68491673  0.81990530  0.33160488    -0.64000
Mn2798     Mn  0.73985912  0.80434075  0.38344938     1.10700
C2799       C  0.67209486  0.78974000  0.33745445     0.99000
C2800       C  0.80976403  0.79041001  0.33848504     0.99100
N2801       N  0.77445993  0.93572092  0.36071520    -0.06200
N2802       N  0.79166995  0.96261260  0.35579888    -0.61600
N2803       N  0.70300682  0.91074307  0.34641851    -0.05500
N2804       N  0.68422173  0.92018379  0.33180064    -0.58300
N2805       N  0.70199204  0.93373597  0.36044761    -0.06800
N2806       N  0.68230800  0.95883288  0.35565968    -0.61200
N2807       N  0.77569185  0.91258836  0.34673821    -0.05800
N2808       N  0.79390330  0.92369723  0.33210323    -0.58300
Mn2809     Mn  0.73786248  0.93451370  0.38395340     1.20200
Mn2810     Mn  0.74018115  0.87034451  0.34600364     1.10100
Cl2811     Cl  0.73911351  0.86945519  0.38331426    -0.86300
C2812       C  0.80416836  0.95476828  0.33806823     0.96000
C2813       C  0.67102478  0.95004614  0.33782871     0.95800
N2814       N  0.77771899  0.69669861  0.59645224    -0.06500
N2815       N  0.80368462  0.71595458  0.59508270    -0.58600
N2816       N  0.70272087  0.67761070  0.58146525    -0.06100
N2817       N  0.67686953  0.68138498  0.57057682    -0.60700
N2818       N  0.70274881  0.69992562  0.59580227    -0.05700
N2819       N  0.67685531  0.71955857  0.59492565    -0.58600
N2820       N  0.77737977  0.67404288  0.58230448    -0.05400
N2821       N  0.80314013  0.67706935  0.57113916    -0.61100
C2822       C  0.81926459  0.70340177  0.57915148     0.95700
C2823       C  0.66113545  0.70771509  0.57902250     0.95500
N2824       N  0.69756220  0.57367005  0.59089073    -0.06700
N2825       N  0.67108822  0.55616309  0.58748900    -0.59200
N2826       N  0.77357153  0.59495289  0.57962345    -0.04800
N2827       N  0.79918232  0.59250866  0.56837393    -0.60400
N2828       N  0.77212653  0.56914009  0.59200681    -0.06700
N2829       N  0.79686124  0.54835340  0.58929739    -0.59400
N2830       N  0.69995155  0.59915841  0.57837525    -0.04400
N2831       N  0.67535948  0.59961151  0.56631809    -0.60500
Mn2832     Mn  0.73855033  0.63652641  0.57980535     1.18400
C2833       C  0.65738561  0.57281369  0.57212015     0.97800
C2834       C  0.81341511  0.56333779  0.57443571     0.98500
N2835       N  0.70171768  0.69500431  0.64149948    -0.06700
N2836       N  0.68132350  0.71960674  0.64601382    -0.63000
N2837       N  0.77318478  0.66650534  0.65563427    -0.05500
N2838       N  0.79256914  0.67319069  0.67042512    -0.63700
N2839       N  0.77493373  0.69111251  0.64244759    -0.06200
N2840       N  0.79584079  0.71432730  0.64786551    -0.63300
N2841       N  0.70002939  0.67004202  0.65444175    -0.05100
N2842       N  0.67861072  0.67754032  0.66810481    -0.64000
Mn2843     Mn  0.73940585  0.69671142  0.61897701     1.10700
C2844       C  0.66692287  0.70850009  0.66265071     0.99000
C2845       C  0.80699990  0.70294219  0.66528821     0.99100
N2846       N  0.76869759  0.56187699  0.63853531    -0.06200
N2847       N  0.78570069  0.53442089  0.64306972    -0.61600
N2848       N  0.69682909  0.58839744  0.65189788    -0.05500
N2849       N  0.67750432  0.57799189  0.66609031    -0.58300
N2850       N  0.69619312  0.56663553  0.63723380    -0.06800
N2851       N  0.67633102  0.54136973  0.64122831    -0.61200
N2852       N  0.76941889  0.58399603  0.65305186    -0.05800
N2853       N  0.78692559  0.57173924  0.66763954    -0.58300
Mn2854     Mn  0.73361697  0.56686886  0.61442097     1.20200
Mn2855     Mn  0.73493871  0.62731936  0.65420198     1.10100
Cl2856     Cl  0.73675425  0.63177333  0.61694753    -0.86300
C2857       C  0.79755455  0.54108476  0.66109976     0.96000
C2858       C  0.66447994  0.54875852  0.65922841     0.95800
N2859       N  0.69488673  0.49012541  0.99669989    -0.37000
N2860       N  0.74288679  0.49399031  0.96572981    -0.57500
N2861       N  0.79102070  0.48289318  0.99613077    -0.36900
N2862       N  0.74334530  0.97723212  0.02680094    -0.57500
C2863       C  0.67651783  0.48983823  0.98035462     0.26600
C2864       C  0.67647048  0.97838707  0.01194556     0.26600
C2865       C  0.80840679  0.47941222  0.97945905     0.26600
C2866       C  0.80908917  0.97286426  0.01153037     0.26600
C2867       C  0.71758596  0.50746314  0.95599880     0.35200
C2868       C  0.76944937  0.50359899  0.95573409     0.35300
C2869       C  0.71728175  0.98000929  0.03854311     0.35200
C2870       C  0.76940259  0.97937496  0.03849154     0.35300
C2871       C  0.64623915  0.47773337  0.98497283    -0.22200
C2872       C  0.64627225  0.97019421  0.00488327    -0.22200
C2873       C  0.83747052  0.46380367  0.98369215    -0.22200
C2874       C  0.83802092  0.96064939  0.00416617    -0.22200
C2875       C  0.72799156  0.52458062  0.93933045    -0.23300
C2876       C  0.76097088  0.52222893  0.93919654    -0.23300
C2877       C  0.72672772  0.98341294  0.05790338    -0.23300
C2878       C  0.75980030  0.98337159  0.05785637    -0.23300
C2879       C  0.68527389  0.50374368  0.96192381    -0.18600
C2880       C  0.68520165  0.97756500  0.03202921    -0.18600
C2881       C  0.80148114  0.97571057  0.03179368    -0.18600
C2882       C  0.80113808  0.49555926  0.96144199    -0.18600
H2883       H  0.62600357  0.47520081  0.97519865     0.14300
H2884       H  0.62601645  0.96052653  0.01316104     0.14300
H2885       H  0.85701627  0.45873048  0.97359956     0.14300
H2886       H  0.85781062  0.94984605  0.01237432     0.14300
H2887       H  0.71338798  0.53768682  0.92855183     0.12600
H2888       H  0.77687755  0.53316940  0.92828594     0.12600
H2889       H  0.71138967  0.98573984  0.07068776     0.12600
H2890       H  0.77494265  0.98564701  0.07063328     0.12600
H2891       H  0.71697112  0.50207297  0.99801482     0.25800
H2892       H  0.77085423  0.49835271  0.99765540     0.25800
N2893       N  0.69204362  0.75891834  0.99766311    -0.37000
N2894       N  0.73866232  0.74789701  0.96640569    -0.57500
N2895       N  0.78838295  0.75559571  0.99618685    -0.36900
N2896       N  0.74110814  0.76930388  0.02661074    -0.57500
C2897       C  0.67404504  0.76215710  0.98128733     0.26600
C2898       C  0.67486364  0.77241279  0.01264457     0.26600
C2899       C  0.80642483  0.75271876  0.97971518     0.26600
C2900       C  0.80784156  0.76671156  0.01066684     0.26600
C2901       C  0.71186324  0.73701644  0.95729916     0.35200
C2902       C  0.76372924  0.73387361  0.95670014     0.35300
C2903       C  0.71561991  0.76789861  0.03887456     0.35200
C2904       C  0.76756702  0.76895255  0.03793702     0.35300
C2905       C  0.64539332  0.77844257  0.98582597    -0.22200
C2906       C  0.64590871  0.78495798  0.00561862    -0.22200
C2907       C  0.83779539  0.76179200  0.98380605    -0.22200
C2908       C  0.83868366  0.77067973  0.00323577    -0.22200
C2909       C  0.71992989  0.71670325  0.94142089    -0.23300
C2910       C  0.75289147  0.71495204  0.94093985    -0.23300
C2911       C  0.72593064  0.76659984  0.05817347    -0.23300
C2912       C  0.75887935  0.76803598  0.05758950    -0.23300
C2913       C  0.68038771  0.74549308  0.96332414    -0.18600
C2914       C  0.68339561  0.77083841  0.03272203    -0.18600
C2915       C  0.79931620  0.77100488  0.03071973    -0.18600
C2916       C  0.79623752  0.73847146  0.96174235    -0.18600
H2917       H  0.62560281  0.78367777  0.97601239     0.14300
H2918       H  0.62672088  0.79668584  0.01398877     0.14300
H2919       H  0.85826594  0.76114970  0.97400414     0.14300
H2920       H  0.86005473  0.77801256  0.01108717     0.14300
H2921       H  0.70383085  0.70414050  0.93138286     0.12600
H2922       H  0.76719773  0.70084298  0.93042928     0.12600
H2923       H  0.71129060  0.76565533  0.07131230     0.12600
H2924       H  0.77458610  0.76815631  0.07018551     0.12600
H2925       H  0.71211227  0.74331417  0.99911520     0.25800
H2926       H  0.76527814  0.74653466  0.99789712     0.25800
N2927       N  0.95160877  0.68472516  0.90565698    -0.06500
N2928       N  0.92524475  0.70336157  0.90749307    -0.58600
N2929       N  0.02575886  0.66198853  0.91996239    -0.06100
N2930       N  0.55087056  0.66582886  0.93161026    -0.60700
N2931       N  0.02651577  0.68645289  0.90671792    -0.05700
N2932       N  0.55141060  0.70793650  0.90936352    -0.58600
N2933       N  0.95183472  0.66004981  0.91878140    -0.05400
N2934       N  0.92576446  0.66125359  0.92975209    -0.61100
C2935       C  0.90927108  0.68827679  0.92255793     0.95700
C2936       C  0.56621168  0.69411026  0.92524378     0.95500
N2937       N  0.03005668  0.55988763  0.90527913    -0.06700
N2938       N  0.55739363  0.54227147  0.90628072    -0.59200
N2939       N  0.95410504  0.58097737  0.91800819    -0.04800
N2940       N  0.92908616  0.57653629  0.92957857    -0.60400
N2941       N  0.95479993  0.55773762  0.90419218    -0.06700
N2942       N  0.93001325  0.53690479  0.90612082    -0.59400
N2943       N  0.02816837  0.58315776  0.91905608    -0.04400
N2944       N  0.55453735  0.58187076  0.92968695    -0.60500
Mn2945     Mn  0.98988467  0.62154682  0.91955641     1.18400
C2946       C  0.57205943  0.55587070  0.92221563     0.97800
C2947       C  0.91414517  0.54894182  0.92212079     0.98500
N2948       N  0.52608953  0.69201099  0.86020822    -0.06700
N2949       N  0.54319579  0.71919611  0.85569862    -0.63000
N2950       N  0.95616780  0.66669595  0.84503144    -0.05500
N2951       N  0.93882230  0.67770742  0.83005645    -0.63700
N2952       N  0.95471382  0.68894488  0.85944898    -0.06200
N2953       N  0.93609287  0.71492968  0.85460480    -0.63300
N2954       N  0.52726510  0.66963604  0.84584797    -0.05100
N2955       N  0.54522434  0.68160294  0.83133270    -0.64000
Mn2956     Mn  0.98998772  0.68853437  0.88330449     1.10700
C2957       C  0.55539353  0.71244416  0.83772714     0.99000
C2958       C  0.92591021  0.70763034  0.83631292     0.99100
N2959       N  0.95767083  0.55987184  0.85780099    -0.06200
N2960       N  0.93803692  0.53506157  0.85279316    -0.61600
N2961       N  0.52978625  0.58717981  0.84462264    -0.05500
N2962       N  0.54941331  0.57922423  0.83007368    -0.58300
N2963       N  0.53021801  0.56289194  0.85804100    -0.06800
N2964       N  0.55035838  0.53846338  0.85288324    -0.61200
N2965       N  0.95784061  0.58396230  0.84422974    -0.05800
N2966       N  0.93859669  0.57555053  0.82967773    -0.58300
Mn2967     Mn  0.99330390  0.55876061  0.88169155     1.20200
Mn2968     Mn  0.99338793  0.62594331  0.84477886     1.10100
Cl2969     Cl  0.99162358  0.62369701  0.88221460    -0.86300
C2970       C  0.92595519  0.54517757  0.83529616     0.96000
C2971       C  0.56242470  0.54882134  0.83541002     0.95800
N2972       N  0.61602179  0.87736004  0.71681221    -0.37000
N2973       N  0.60158969  0.82690146  0.74712392    -0.57500
N2974       N  0.58708837  0.88078678  0.77475824    -0.36900
N2975       N  0.60362133  0.93105084  0.74497766    -0.57500
C2976       C  0.62787259  0.84855123  0.70858827     0.26600
C2977       C  0.63019629  0.90420257  0.70771704     0.26600
C2978       C  0.58869371  0.85356050  0.78704149     0.26600
C2979       C  0.58954471  0.90923912  0.78582177     0.26600
C2980       C  0.60224835  0.80667109  0.73112055     0.35200
C2981       C  0.58808453  0.80828411  0.76170491     0.35300
C2982       C  0.60721653  0.95008426  0.72855095     0.35200
C2983       C  0.59120896  0.95200610  0.75875655     0.35300
C2984       C  0.64958045  0.85717125  0.69390761    -0.22200
C2985       C  0.65102929  0.89232609  0.69335491    -0.22200
C2986       C  0.59185606  0.86485892  0.80618724    -0.22200
C2987       C  0.59229553  0.90003351  0.80542368    -0.22200
C2988       C  0.58889471  0.77517525  0.73551422    -0.23300
C2989       C  0.57995730  0.77618162  0.75491270    -0.23300
C2990       C  0.59679734  0.98323408  0.73185785    -0.23300
C2991       C  0.58669033  0.98446746  0.75103429    -0.23300
C2992       C  0.61818354  0.81486918  0.71337637    -0.18600
C2993       C  0.62367451  0.93905838  0.71155649    -0.18600
C2994       C  0.58757636  0.94320931  0.77873122    -0.18600
C2995       C  0.58547987  0.81897466  0.78142840    -0.18600
H2996       H  0.66290152  0.83995254  0.68450830     0.14300
H2997       H  0.66568038  0.90740849  0.68347107     0.14300
H2998       H  0.59342399  0.84938591  0.81935307     0.14300
H2999       H  0.59425371  0.91690030  0.81789342     0.14300
H3000       H  0.58654773  0.75346290  0.72586611     0.12600
H3001       H  0.56920546  0.75546495  0.76315524     0.12600
H3002       H  0.60387287  0.50619878  0.72318753     0.12600
H3003       H  0.58534653  0.50819618  0.76018313     0.12600
H3004       H  0.59694550  0.87859078  0.72667611     0.25800
H3005       H  0.58107590  0.88013043  0.75997359     0.25800
N3006       N  0.86449379  0.92797074  0.74721015    -0.37000
N3007       N  0.84657192  0.87403530  0.72048051    -0.57500
N3008       N  0.86559273  0.82390584  0.74983366    -0.36900
N3009       N  0.88140491  0.87748984  0.77720604    -0.57500
C3010       C  0.84822053  0.94610921  0.73347211     0.26600
C3011       C  0.86703965  0.94792382  0.76329666     0.26600
C3012       C  0.84996879  0.80377305  0.73698442     0.26600
C3013       C  0.86901820  0.80579062  0.76665543     0.26600
C3014       C  0.84399571  0.90094441  0.70805993     0.35200
C3015       C  0.84498938  0.84551641  0.70942265     0.35300
C3016       C  0.89342705  0.90587160  0.78558440     0.35200
C3017       C  0.89443833  0.85054398  0.78684266     0.35300
C3018       C  0.84044482  0.97800416  0.74091581    -0.22200
C3019       C  0.85224788  0.97911438  0.75973804    -0.22200
C3020       C  0.84348524  0.77248347  0.74579437    -0.22200
C3021       C  0.85533026  0.77386205  0.76453600    -0.22200
C3022       C  0.84055291  0.88950094  0.68897793    -0.23300
C3023       C  0.84114328  0.85436822  0.68983826    -0.23300
C3024       C  0.91400535  0.89687523  0.80072075    -0.23300
C3025       C  0.91457368  0.86178818  0.80153993    -0.23300
C3026       C  0.84202797  0.93547744  0.71399903    -0.18600
C3027       C  0.88458336  0.93971264  0.78047212    -0.18600
C3028       C  0.88699151  0.81602805  0.78311174    -0.18600
C3029       C  0.84399806  0.81181464  0.71705226    -0.18600
H3030       H  0.82425524  0.49805409  0.73541551     0.14300
H3031       H  0.84661821  0.50010476  0.77158877     0.14300
H3032       H  0.83214187  0.75047354  0.73934046     0.14300
H3033       H  0.85480772  0.75328656  0.77519358     0.14300
H3034       H  0.83731944  0.90484261  0.67587542     0.12600
H3035       H  0.83834461  0.83734197  0.67750851     0.12600
H3036       H  0.92717172  0.91379785  0.81023359     0.12600
H3037       H  0.92815646  0.84634042  0.81179528     0.12600
H3038       H  0.87658475  0.90506654  0.74493795     0.25800
H3039       H  0.87710328  0.84666815  0.74644774     0.25800
N3040       N  0.59799546  0.62051150  0.22121082    -0.37000
N3041       N  0.61962719  0.56879519  0.24921283    -0.57500
N3042       N  0.63087601  0.62220456  0.27837051    -0.36900
N3043       N  0.61282430  0.67409089  0.24949706    -0.57500
C3044       C  0.59644932  0.59247633  0.20970025     0.26600
C3045       C  0.59378999  0.64826520  0.20956520     0.26600
C3046       C  0.64420621  0.59497486  0.28762553     0.26600
C3047       C  0.64074218  0.65064434  0.28780182     0.26600
C3048       C  0.60788666  0.54789673  0.23524751     0.35200
C3049       C  0.62592308  0.54888559  0.26500322     0.35300
C3050       C  0.60051576  0.69391911  0.23503460     0.35200
C3051       C  0.61761355  0.69469428  0.26509526     0.35300
C3052       C  0.59062636  0.60248509  0.19049639    -0.22200
C3053       C  0.58889679  0.63759426  0.19040595    -0.22200
C3054       C  0.66215754  0.60618477  0.30339373    -0.22200
C3055       C  0.66002606  0.64125248  0.30349123    -0.22200
C3056       C  0.60732074  0.51451322  0.24208539    -0.23300
C3057       C  0.61862543  0.51515118  0.26092055    -0.23300
C3058       C  0.59795110  0.72740302  0.24144951    -0.23300
C3059       C  0.60854447  0.72783090  0.26046334    -0.23300
C3060       C  0.59858853  0.55804536  0.21613768    -0.18600
C3061       C  0.59265050  0.68281862  0.21583562    -0.18600
C3062       C  0.63254302  0.68484796  0.28291492    -0.18600
C3063       C  0.63964815  0.56018584  0.28277215    -0.18600
H3064       H  0.58759475  0.58618485  0.17786059     0.14300
H3065       H  0.58415710  0.65335032  0.17765075     0.14300
H3066       H  0.67553267  0.59070202  0.31373486     0.14300
H3067       H  0.67153503  0.65792530  0.31391767     0.14300
H3068       H  0.58745657  0.99305589  0.23654959     0.12600
H3069       H  0.61007464  0.99269679  0.27264053     0.12600
H3070       H  0.58961906  0.74943628  0.23327175     0.12600
H3071       H  0.60999099  0.75018434  0.26968934     0.12600
H3072       H  0.59876210  0.62051752  0.23634943     0.25800
H3073       H  0.61361502  0.62119995  0.26751216     0.25800
N3074       N  0.86497965  0.56970044  0.25134685    -0.37000
N3075       N  0.84933701  0.62219912  0.27972882    -0.57500
N3076       N  0.87086894  0.67404944  0.25187466    -0.36900
N3077       N  0.88349471  0.62170079  0.22283575    -0.57500
C3078       C  0.84928643  0.55078783  0.26499418     0.26600
C3079       C  0.86734680  0.55062773  0.23487615     0.26600
C3080       C  0.85537739  0.69340301  0.26532780     0.26600
C3081       C  0.87311518  0.69296297  0.23524878     0.26600
C3082       C  0.84616098  0.59444437  0.29145698     0.35200
C3083       C  0.84930558  0.64971670  0.29163752     0.35300
C3084       C  0.89410582  0.59361691  0.21334836     0.35200
C3085       C  0.89691031  0.64880803  0.21365977     0.35300
C3086       C  0.84171578  0.51925349  0.25709808    -0.22200
C3087       C  0.85318941  0.51912585  0.23812759    -0.22200
C3088       C  0.84779898  0.72493077  0.25718711    -0.22200
C3089       C  0.85899806  0.72464512  0.23819510    -0.22200
C3090       C  0.84395933  0.60442245  0.31091631    -0.23300
C3091       C  0.84595862  0.63944148  0.31102797    -0.23300
C3092       C  0.91429971  0.60293635  0.19802377    -0.23300
C3093       C  0.91607019  0.63797328  0.19822663    -0.23300
C3094       C  0.84334649  0.56042271  0.28471928    -0.18600
C3095       C  0.88409591  0.55991478  0.21753950    -0.18600
C3096       C  0.88939492  0.68317342  0.21792235    -0.18600
C3097       C  0.84942197  0.68403166  0.28505964    -0.18600
H3098       H  0.82081061  0.00292079  0.26149810     0.14300
H3099       H  0.84473825  0.00204119  0.22543846     0.14300
H3100       H  0.83559121  0.74604995  0.26422771     0.14300
H3101       H  0.85714816  0.74550133  0.22777668     0.14300
H3102       H  0.84090394  0.58820864  0.32368746     0.12600
H3103       H  0.84463800  0.65552226  0.32388350     0.12600
H3104       H  0.92611453  0.58626524  0.18760546     0.12600
H3105       H  0.92940116  0.65369782  0.18797879     0.12600
H3106       H  0.87673085  0.59253228  0.25384732     0.25800
H3107       H  0.88244405  0.65096808  0.25460022     0.25800
N3108       N  0.95226095  0.81219314  0.09278811    -0.06500
N3109       N  0.92544204  0.79478007  0.09000083    -0.58600
N3110       N  0.02887467  0.83245786  0.08048913    -0.06100
N3111       N  0.55473741  0.82889397  0.06861627    -0.60700
N3112       N  0.02719698  0.80802708  0.09375257    -0.05700
N3113       N  0.55188581  0.78695322  0.09096670    -0.58600
N3114       N  0.95491610  0.83630608  0.07940356    -0.05400
N3115       N  0.93031291  0.83598514  0.06742112    -0.61100
C3116       C  0.91194184  0.81018632  0.07409380     0.95700
C3117       C  0.56857622  0.80004997  0.07563093     0.95500
N3118       N  0.03121460  0.93651780  0.09372527    -0.06700
N3119       N  0.55686701  0.95614116  0.09156535    -0.59200
N3120       N  0.95684703  0.91523591  0.07942047    -0.04800
N3121       N  0.93215990  0.91922313  0.06753934    -0.60400
N3122       N  0.95646913  0.93884669  0.09307105    -0.06700
N3123       N  0.93159560  0.95956110  0.09068849    -0.59400
N3124       N  0.03126312  0.91212994  0.08053877    -0.04400
N3125       N  0.55683485  0.91475587  0.06901734    -0.60500
Mn3126     Mn  0.99314926  0.87397951  0.07935741     1.18400
C3127       C  0.57259910  0.94205800  0.07612308     0.97800
C3128       C  0.91681546  0.94710194  0.07461016     0.98500
N3129       N  0.52567737  0.80680446  0.13887120    -0.06700
N3130       N  0.54460480  0.78091813  0.14344701    -0.63000
N3131       N  0.95364301  0.83249917  0.15363426    -0.05500
N3132       N  0.93663859  0.82232281  0.16895677    -0.63700
N3133       N  0.95260332  0.80926852  0.13972962    -0.06200
N3134       N  0.93483879  0.78317255  0.14544524    -0.63300
N3135       N  0.52629414  0.83007031  0.15276565    -0.05100
N3136       N  0.54530250  0.81992701  0.16712647    -0.64000
Mn3137     Mn  0.98904999  0.80810424  0.11632513     1.10700
C3138       C  0.55713321  0.78948794  0.16100032     0.99000
C3139       C  0.92484802  0.79155425  0.16371585     0.99100
N3140       N  0.95582570  0.93872195  0.13975920    -0.06200
N3141       N  0.93726023  0.96454366  0.14511687    -0.61600
N3142       N  0.52758215  0.91295722  0.15367919    -0.05500
N3143       N  0.54554189  0.92249444  0.16863195    -0.58300
N3144       N  0.52840102  0.93652472  0.13984752    -0.06800
N3145       N  0.54712303  0.96193212  0.14504654    -0.61200
N3146       N  0.95517117  0.91452835  0.15325675    -0.05800
N3147       N  0.93619038  0.92357871  0.16787595    -0.58300
Mn3148     Mn  0.99294493  0.93860892  0.11644195     1.20200
Mn3149     Mn  0.99083846  0.87271476  0.15387644     1.10100
Cl3150     Cl  0.99147576  0.87332481  0.11660616    -0.86300
C3151       C  0.92500123  0.95480018  0.16272109     0.96000
C3152       C  0.55813045  0.95286960  0.16293823     0.95800
C3153       C  0.89191759  0.00596930  0.17089043    -0.26700
C3154       C  0.91273729  0.97992109  0.17724518    -0.14700
C3155       C  0.92320617  0.97972280  0.19700832     0.35900
C3156       C  0.91900307  0.51120332  0.20818895    -0.26100
C3157       C  0.89308224  0.53246927  0.20350786    -0.15400
C3158       C  0.87666741  0.52786306  0.18565965     0.37000
N3159       N  0.84920401  0.54869068  0.18108322    -0.89600
H3160       H  0.88362912  0.00598884  0.15583816     0.18100
H3161       H  0.93148241  0.51501008  0.22192172     0.18100
N3162       N  0.94448617  0.95350775  0.20411672    -0.88600
H3163       H  0.83933152  0.54138547  0.16767214     0.35500
H3164       H  0.85705863  0.57381004  0.17925501     0.40600
H3165       H  0.93122732  0.93097634  0.20518641     0.40200
H3166       H  0.96717041  0.47327039  0.21321001     0.35100
C3167       C  0.92126158  0.73450088  0.20915084    -0.26700
C3168       C  0.89824656  0.71045266  0.20355862    -0.14700
C3169       C  0.88342424  0.71371486  0.18496055     0.35900
C3170       C  0.89251651  0.74049829  0.17239509    -0.26100
C3171       C  0.91505937  0.76497596  0.17812540    -0.15400
C3172       C  0.92959831  0.76194165  0.19679764     0.37000
N3173       N  0.95353782  0.78588871  0.20295275    -0.89600
H3174       H  0.93251714  0.73198636  0.22339911     0.18100
H3175       H  0.88139366  0.74256218  0.15808582     0.18100
N3176       N  0.85848156  0.69117979  0.17853010    -0.88600
H3177       H  0.96376366  0.77817205  0.21624566     0.35500
H3178       H  0.94183085  0.80899911  0.20581966     0.40600
H3179       H  0.85176879  0.67375901  0.18939364     0.40200
H3180       H  0.86751457  0.67711008  0.16671901     0.35100
C3181       C  0.59953197  0.98414342  0.18175009    -0.26700
C3182       C  0.56715484  0.97929194  0.17722249    -0.14700
C3183       C  0.54365493  0.00088119  0.18559485     0.35900
C3184       C  0.55799640  0.52005033  0.20136795    -0.26100
C3185       C  0.59004890  0.53061307  0.20206274    -0.15400
C3186       C  0.61327633  0.51400129  0.19017444     0.37000
N3187       N  0.64656343  0.52345293  0.19018772    -0.89600
H3188       H  0.61758410  0.96785267  0.17509672     0.18100
H3189       H  0.54037687  0.53265632  0.21059620     0.18100
N3190       N  0.51027851  0.99605318  0.18115627    -0.88600
H3191       H  0.65964228  0.50257224  0.19551715     0.35500
H3192       H  0.65095925  0.54372935  0.19966543     0.40600
H3193       H  0.00705780  0.00285774  0.16619456     0.40200
H3194       H  0.99625519  0.01425882  0.18892585     0.35100
C3195       C  0.60479129  0.71990677  0.18692325    -0.26700
C3196       C  0.58267813  0.70941865  0.20133072    -0.14700
C3197       C  0.55216861  0.72542990  0.20225690     0.35900
C3198       C  0.54521515  0.75230985  0.18932454    -0.26100
C3199       C  0.56732067  0.76281666  0.17497252    -0.15400
C3200       C  0.59735134  0.74607144  0.17353011     0.37000
N3201       N  0.62080775  0.75486596  0.15882916    -0.89600
H3202       H  0.62808821  0.70759543  0.18610496     0.18100
H3203       H  0.52188891  0.76458695  0.19017374     0.18100
N3204       N  0.52782723  0.71538993  0.21614137    -0.88600
H3205       H  0.64105490  0.76401430  0.16607468     0.35500
H3206       H  0.61282445  0.77462407  0.14972835     0.40600
H3207       H  0.53510812  0.69462219  0.22468561     0.40200
H3208       H  0.01568026  0.68417807  0.19742015     0.35100
C3209       C  0.60212173  0.51161632  0.81849755    -0.26700
C3210       C  0.57044108  0.52310640  0.82053144    -0.14700
C3211       C  0.54593240  0.50841049  0.80917943     0.35900
C3212       C  0.55107232  0.98083089  0.79758373    -0.26100
C3213       C  0.58261851  0.97124604  0.79303794    -0.15400
C3214       C  0.60854453  0.98890793  0.80169836     0.37000
N3215       N  0.64148661  0.98119431  0.79711575    -0.89600
H3216       H  0.62081961  0.52274531  0.82739305     0.18100
H3217       H  0.53136348  0.96771218  0.79060261     0.18100
N3218       N  0.01319613  0.50498193  0.81914287    -0.88600
H3219       H  0.65135902  0.00284052  0.79043656     0.35500
H3220       H  0.64354027  0.96143391  0.78696456     0.40600
H3221       H  0.00986608  0.49885322  0.83395317     0.40200
H3222       H  0.99827929  0.48863937  0.81127575     0.35100
C3223       C  0.59309485  0.74008013  0.81418130    -0.26700
C3224       C  0.56342758  0.74034426  0.82390106    -0.14700
C3225       C  0.54139033  0.76713607  0.82021825     0.35900
C3226       C  0.54946406  0.79301576  0.80672797    -0.26100
C3227       C  0.57900273  0.79260457  0.79682748    -0.15400
C3228       C  0.60129589  0.76623179  0.80083793     0.37000
N3229       N  0.63201367  0.76606053  0.79118859    -0.89600
H3230       H  0.60994574  0.71956729  0.81712937     0.18100
H3231       H  0.53238652  0.81321149  0.80354716     0.18100
N3232       N  0.51065403  0.76756985  0.82989128    -0.88600
H3233       H  0.64556636  0.74491439  0.79566513     0.35500
H3234       H  0.64441443  0.78772441  0.79578594     0.40600
H3235       H  0.99869569  0.74697749  0.82605758     0.40200
H3236       H  0.99932609  0.78973266  0.82675364     0.35100
C3237       C  0.88231586  0.96889738  0.81306666    -0.26700
C3238       C  0.89424404  0.96802361  0.79377973    -0.14700
C3239       C  0.91599672  0.99334121  0.78746415     0.35900
C3240       C  0.92153737  0.52101774  0.80164349    -0.26100
C3241       C  0.91164219  0.52060515  0.82137017    -0.15400
C3242       C  0.89248257  0.99395771  0.82636831     0.37000
N3243       N  0.88060120  0.99399490  0.84620535    -0.89600
H3244       H  0.86545147  0.94953955  0.81781499     0.18100
H3245       H  0.93788802  0.54062682  0.79658297     0.18100
N3246       N  0.92888583  0.99241693  0.76786544    -0.88600
H3247       H  0.86467956  0.97378869  0.84847104     0.35500
H3248       H  0.86558088  0.51657528  0.85004377     0.40600
H3249       H  0.94254108  0.97007699  0.76657100     0.40200
H3250       H  0.93863126  0.51615786  0.76613065     0.35100
C3251       C  0.88250303  0.78519469  0.81521526    -0.26700
C3252       C  0.89799998  0.78894575  0.79703025    -0.14700
C3253       C  0.92248340  0.76575277  0.79168431     0.35900
C3254       C  0.93059173  0.73889355  0.80453176    -0.26100
C3255       C  0.91507040  0.73500314  0.82273467    -0.15400
C3256       C  0.89100042  0.75864942  0.82823714     0.37000
N3257       N  0.87458985  0.75503930  0.84672877    -0.89600
H3258       H  0.86357279  0.80294963  0.81916413     0.18100
H3259       H  0.94961883  0.72132593  0.80048535     0.18100
N3260       N  0.93954126  0.77009021  0.77345562    -0.88600
H3261       H  0.85620831  0.77316128  0.84793657     0.35500
H3262       H  0.89092548  0.76066293  0.85782709     0.40600
H3263       H  0.92361027  0.76528126  0.76201876     0.40200
H3264       H  0.95787345  0.75192139  0.77219726     0.35100
C3265       C  0.63175284  0.75066463  0.04730251    -0.26700
C3266       C  0.65705276  0.77428040  0.04748266    -0.14700
C3267       C  0.65473002  0.80304644  0.05967342     0.35900
C3268       C  0.62647103  0.80880466  0.07043802    -0.26100
C3269       C  0.59992853  0.78726844  0.06859158    -0.15400
C3270       C  0.60305762  0.75691135  0.05755129     0.37000
N3271       N  0.57747033  0.73266134  0.05570170    -0.89600
H3272       H  0.63358601  0.72822019  0.03811064     0.18100
H3273       H  0.62463409  0.83086865  0.07979965     0.18100
N3274       N  0.68037457  0.82723528  0.06033670    -0.88600
H3275       H  0.57027809  0.73265673  0.04102243     0.35500
H3276       H  0.55746096  0.73956098  0.06403981     0.40600
H3277       H  0.67203076  0.85063657  0.05499066     0.40200
H3278       H  0.68708041  0.83036164  0.07497884     0.35100
C3279       C  0.83696579  0.81422333  0.04266334    -0.26700
C3280       C  0.82524109  0.78098539  0.04445311    -0.14700
C3281       C  0.84066980  0.75769200  0.05734152     0.35900
C3282       C  0.86785141  0.76834962  0.06781011    -0.26100
C3283       C  0.88079627  0.80109890  0.06500656    -0.15400
C3284       C  0.86486231  0.82420939  0.05227482     0.37000
N3285       N  0.87731550  0.85760604  0.04840542    -0.89600
H3286       H  0.82538417  0.83204808  0.03270196     0.18100
H3287       H  0.87991729  0.75024587  0.07735228     0.18100
N3288       N  0.83049540  0.72284389  0.05948504    -0.88600
H3289       H  0.85902474  0.87529809  0.05109135     0.35500
H3290       H  0.88293660  0.85915612  0.03345856     0.40600
H3291       H  0.81093420  0.71740694  0.05055090     0.40200
H3292       H  0.82281139  0.71948919  0.07398859     0.35100
C3293       C  0.63143890  0.71023075  0.96261754    -0.26700
C3294       C  0.65216102  0.73214450  0.95242211    -0.14700
C3295       C  0.64457180  0.74207816  0.93303630     0.35900
C3296       C  0.61640416  0.72940494  0.92424967    -0.26100
C3297       C  0.59555069  0.70762808  0.93466970    -0.15400
C3298       C  0.60312881  0.69856200  0.95418362     0.37000
N3299       N  0.58157386  0.67854695  0.96589005    -0.89600
H3300       H  0.63690035  0.70280446  0.97759137     0.18100
H3301       H  0.61069757  0.73659727  0.90929170     0.18100
N3302       N  0.66523861  0.76504836  0.92248167    -0.88600
H3303       H  0.57478442  0.69305497  0.97807937     0.35500
H3304       H  0.59401023  0.65711287  0.97101772     0.40600
H3305       H  0.66486307  0.78842479  0.92982645     0.40200
H3306       H  0.65631607  0.76968425  0.90839836     0.35100
C3307       C  0.83088615  0.69092748  0.95104935    -0.26700
C3308       C  0.82160609  0.72501955  0.94849733    -0.14700
C3309       C  0.83947144  0.74634915  0.93570542     0.35900
C3310       C  0.86746828  0.73348770  0.92686427    -0.26100
C3311       C  0.87787113  0.69985953  0.93040513    -0.15400
C3312       C  0.85861843  0.67811152  0.94205516     0.37000
N3313       N  0.86713546  0.64299597  0.94493352    -0.89600
H3314       H  0.81711134  0.67445846  0.96071690     0.18100
H3315       H  0.88175220  0.75034209  0.91772984     0.18100
N3316       N  0.83081293  0.78139101  0.93209286    -0.88600
H3317       H  0.84818464  0.62799356  0.93994125     0.35500
H3318       H  0.86966397  0.63863930  0.96000115     0.40600
H3319       H  0.80951747  0.78795089  0.93927220     0.40200
H3320       H  0.82626307  0.78393726  0.91707842     0.35100
C3321       C  0.60886044  0.98711764  0.06256550    -0.26700
C3322       C  0.60403749  0.95313475  0.06835402    -0.14700
C3323       C  0.62789351  0.92870044  0.06431719     0.35900
C3324       C  0.65538160  0.93779011  0.05369155    -0.26100
C3325       C  0.65926553  0.97110238  0.04664562    -0.15400
C3326       C  0.63611243  0.99628943  0.05139041     0.37000
N3327       N  0.63996696  0.03073108  0.04443130    -0.89600
H3328       H  0.59041607  0.00594751  0.06561722     0.18100
H3329       H  0.67296092  0.91833752  0.05003205     0.18100
N3330       N  0.62373060  0.89421493  0.07059588    -0.88600
H3331       H  0.62122246  0.04616781  0.04955370     0.35500
H3332       H  0.63805789  0.03052232  0.02915050     0.40600
H3333       H  0.64354323  0.88744801  0.07913867     0.40200
H3334       H  0.62337798  0.87901088  0.05803092     0.35100
C3335       C  0.88376313  0.98713204  0.05474400    -0.26700
C3336       C  0.88531482  0.95876693  0.06729227    -0.14700
C3337       C  0.85740103  0.93951577  0.07092766     0.35900
C3338       C  0.82945857  0.94634310  0.05996555    -0.26100
C3339       C  0.82860487  0.97310372  0.04614807    -0.15400
C3340       C  0.85546693  0.99484605  0.04447399     0.37000
N3341       N  0.85441933  0.02399255  0.03169615    -0.89600
H3342       H  0.90494897  0.00253746  0.05228787     0.18100
H3343       H  0.80873224  0.93000648  0.06168899     0.18100
N3344       N  0.85745874  0.91347370  0.08589325    -0.88600
H3345       H  0.87271615  0.02143783  0.02125373     0.35500
H3346       H  0.85923019  0.04567266  0.04005567     0.40600
H3347       H  0.87426605  0.89475705  0.08213295     0.40200
H3348       H  0.83513777  0.90146156  0.08662863     0.35100
C3349       C  0.61649583  0.51238093  0.92510195    -0.26700
C3350       C  0.60303739  0.54381885  0.93086043    -0.14700
C3351       C  0.61885534  0.56287838  0.94549881     0.35900
C3352       C  0.64642310  0.54973730  0.95454169    -0.26100
C3353       C  0.65898574  0.51779539  0.94942830    -0.15400
C3354       C  0.64408780  0.49898732  0.93429470     0.37000
N3355       N  0.65714313  0.96849253  0.92789243    -0.89600
H3356       H  0.60545489  0.99878806  0.91403445     0.18100
H3357       H  0.65764407  0.56424888  0.96613809     0.18100
N3358       N  0.60692941  0.59554850  0.95150530    -0.88600
H3359       H  0.64012425  0.94972422  0.93108587     0.35500
H3360       H  0.67799792  0.96167892  0.93538877     0.40600
H3361       H  0.62503188  0.61355478  0.94922379     0.40200
H3362       H  0.60203029  0.59435406  0.96655501     0.35100
C3363       C  0.84119788  0.49259630  0.93374347    -0.26700
C3364       C  0.82856157  0.50980682  0.95007962    -0.14700
C3365       C  0.84333859  0.54001772  0.95650381     0.35900
C3366       C  0.87080455  0.55185387  0.94703704    -0.26100
C3367       C  0.88425138  0.53460424  0.93091514    -0.15400
C3368       C  0.86899302  0.50469408  0.92402520     0.37000
N3369       N  0.88168993  0.48657816  0.90741244    -0.89600
H3370       H  0.82976383  0.46935914  0.92887346     0.18100
H3371       H  0.88190024  0.57474935  0.95261646     0.18100
N3372       N  0.83089693  0.55923660  0.97271732    -0.88600
H3373       H  0.86684033  0.46611740  0.90380244     0.35500
H3374       H  0.90364701  0.47590971  0.91161472     0.40600
H3375       H  0.80710333  0.56586570  0.96969626     0.40200
H3376       H  0.83133954  0.54392881  0.98531157     0.35100
C3377       C  0.67083933  0.51559342  0.68992544    -0.26700
C3378       C  0.65353120  0.52124520  0.67256600    -0.14700
C3379       C  0.62814476  0.49889420  0.66775280     0.35900
C3380       C  0.62110947  0.96940005  0.67939319    -0.26100
C3381       C  0.63588691  0.96569229  0.69774292    -0.15400
C3382       C  0.66000471  0.98911549  0.70326511     0.37000
N3383       N  0.67696700  0.98651921  0.72157964    -0.89600
H3384       H  0.69070209  0.53213168  0.69357557     0.18100
H3385       H  0.60246601  0.95169815  0.67520019     0.18100
N3386       N  0.60872480  0.50347605  0.65052447    -0.88600
H3387       H  0.70132486  0.98348023  0.71831902     0.35500
H3388       H  0.67045368  0.96477264  0.72950731     0.40600
H3389       H  0.61518896  0.52528565  0.64263767     0.40200
H3390       H  0.58511544  0.50760119  0.65521493     0.35100
C3391       C  0.62989916  0.75709710  0.66883290    -0.26700
C3392       C  0.65145299  0.73274815  0.67636750    -0.14700
C3393       C  0.66068338  0.73459899  0.69625145     0.35900
C3394       C  0.64935778  0.76166074  0.70781996    -0.26100
C3395       C  0.62806845  0.78623237  0.70027900    -0.15400
C3396       C  0.61751746  0.78336268  0.68061585     0.37000
N3397       N  0.59413292  0.80613829  0.67219629    -0.89600
H3398       H  0.62262971  0.75570113  0.65360060     0.18100
H3399       H  0.65738544  0.76383777  0.72286880     0.18100
N3400       N  0.68272826  0.71010931  0.70442367    -0.88600
H3401       H  0.60564224  0.82057949  0.66133942     0.35500
H3402       H  0.58488495  0.82317116  0.68251741     0.40600
H3403       H  0.67064303  0.68683494  0.70551117     0.40200
H3404       H  0.68890402  0.71674397  0.71875410     0.35100
C3405       C  0.79836649  0.96722078  0.69662937    -0.26700
C3406       C  0.83130540  0.96180726  0.69948612    -0.14700
C3407       C  0.85360891  0.98245508  0.68933688     0.35900
C3408       C  0.84084632  0.51097615  0.67942294    -0.26100
C3409       C  0.80828423  0.51365996  0.67461475    -0.15400
C3410       C  0.78618982  0.49047187  0.68296409     0.37000
N3411       N  0.75261220  0.49332354  0.67847906    -0.89600
H3412       H  0.78134809  0.95152035  0.70460426     0.18100
H3413       H  0.85769784  0.52879623  0.67294620     0.18100
N3414       N  0.88741154  0.97720402  0.69216734    -0.88600
H3415       H  0.73956836  0.47472634  0.68608649     0.35500
H3416       H  0.74978878  0.48797840  0.66357789     0.40600
H3417       H  0.89263240  0.98328808  0.70672756     0.40200
H3418       H  0.90059262  0.99409781  0.68340051     0.35100
C3419       C  0.84849314  0.74179589  0.67852624    -0.26700
C3420       C  0.81762890  0.72789592  0.67994743    -0.14700
C3421       C  0.79550808  0.74162453  0.69346999     0.35900
C3422       C  0.80429620  0.76943738  0.70509446    -0.26100
C3423       C  0.83518013  0.78330761  0.70379428    -0.15400
C3424       C  0.85773294  0.76902966  0.69065938     0.37000
N3425       N  0.88966010  0.78260911  0.68954688    -0.89600
H3426       H  0.86524600  0.73155548  0.66784575     0.18100
H3427       H  0.78702924  0.78015747  0.71530801     0.18100
N3428       N  0.76374603  0.72801679  0.69497170    -0.88600
H3429       H  0.90321265  0.76946285  0.67905250     0.35500
H3430       H  0.90065525  0.77811228  0.70308345     0.40600
H3431       H  0.74742261  0.74765411  0.69190698     0.40200
H3432       H  0.76003298  0.72009517  0.70947378     0.35100
C3433       C  0.68360035  0.48664798  0.30768266    -0.26700
C3434       C  0.66023361  0.97651672  0.32386609    -0.14700
C3435       C  0.63362230  0.99806389  0.32781309     0.35900
C3436       C  0.62651159  0.02478272  0.31475583    -0.26100
C3437       C  0.64930886  0.53362557  0.29731194    -0.15400
C3438       C  0.67722642  0.51373130  0.29463342     0.37000
N3439       N  0.69927617  0.52161696  0.27898540    -0.89600
H3440       H  0.70520796  0.47152057  0.30576285     0.18100
H3441       H  0.60591835  0.04103147  0.31760388     0.18100
N3442       N  0.61322107  0.99357935  0.34470968    -0.88600
H3443       H  0.71927557  0.50545199  0.27956464     0.35500
H3444       H  0.68784370  0.51661259  0.26569724     0.40600
H3445       H  0.61996581  0.97239101  0.35307588     0.40200
H3446       H  0.59010833  0.98848593  0.33963314     0.35100
C3447       C  0.67674370  0.76013094  0.30547558    -0.26700
C3448       C  0.66020234  0.76422820  0.32328572    -0.14700
C3449       C  0.63436752  0.74222945  0.32773732     0.35900
C3450       C  0.62556537  0.71691453  0.31430752    -0.26100
C3451       C  0.64255089  0.71243617  0.29663729    -0.15400
C3452       C  0.66871089  0.73424131  0.29228675     0.37000
N3453       N  0.68837556  0.73024015  0.27504986    -0.89600
H3454       H  0.69707370  0.77631728  0.30210349     0.18100
H3455       H  0.60552777  0.70036355  0.31774706     0.18100
N3456       N  0.61644491  0.74533882  0.34562808    -0.88600
H3457       H  0.68485085  0.75175412  0.26616850     0.35500
H3458       H  0.68191908  0.70898576  0.26682301     0.40600
H3459       H  0.60734991  0.77021077  0.34646791     0.40200
H3460       H  0.63195994  0.74133554  0.35742467     0.35100
C3461       C  0.79371956  0.01013178  0.32127911    -0.26700
C3462       C  0.81394302  0.98174677  0.32407310    -0.14700
C3463       C  0.84301224  0.97958704  0.31359602     0.35900
C3464       C  0.85492695  0.50707042  0.30383114    -0.26100
C3465       C  0.83325506  0.53332191  0.29892513    -0.15400
C3466       C  0.80212991  0.53314557  0.30714514     0.37000
N3467       N  0.77934716  0.55924105  0.30186915    -0.89600
H3468       H  0.77122991  0.01157557  0.32927726     0.18100
H3469       H  0.87874096  0.50721041  0.29740361     0.18100
N3470       N  0.86407789  0.95091492  0.31657005    -0.88600
H3471       H  0.75760979  0.55550074  0.30927101     0.35500
H3472       H  0.77449661  0.55665689  0.28690984     0.40600
H3473       H  0.87198499  0.95169170  0.33110448     0.40200
H3474       H  0.88449640  0.95315048  0.30770387     0.35100
C3475       C  0.80853435  0.71223774  0.30620622    -0.26700
C3476       C  0.84007107  0.71143715  0.29906588    -0.14700
C3477       C  0.86176582  0.73727223  0.30455033     0.35900
C3478       C  0.85127648  0.76365782  0.31704515    -0.26100
C3479       C  0.81981364  0.76406885  0.32435058    -0.15400
C3480       C  0.79817958  0.73822663  0.31884390     0.37000
N3481       N  0.76576829  0.73849326  0.32617300    -0.89600
H3482       H  0.79191832  0.69255312  0.30176654     0.18100
H3483       H  0.86777898  0.78348800  0.32142449     0.18100
N3484       N  0.89426855  0.73643081  0.29745019    -0.88600
H3485       H  0.75306166  0.71750705  0.32090258     0.35500
H3486       H  0.75439644  0.76028220  0.32058358     0.40600
H3487       H  0.90517839  0.71449589  0.30319738     0.40200
H3488       H  0.90710822  0.75725757  0.30280377     0.35100
C3489       C  0.57414187  0.70645522  0.56394302    -0.26700
C3490       C  0.57376760  0.73332448  0.55023586    -0.14700
C3491       C  0.60056978  0.75508271  0.54886375     0.35900
C3492       C  0.62822114  0.74784898  0.55978522    -0.26100
C3493       C  0.62941860  0.71952800  0.57235198    -0.15400
C3494       C  0.60144241  0.69972811  0.57534875     0.37000
N3495       N  0.60019850  0.67210036  0.58931461    -0.89600
H3496       H  0.55355830  0.68978321  0.56525024     0.18100
H3497       H  0.64946648  0.76326725  0.55755247     0.18100
N3498       N  0.60029851  0.78353249  0.53557592    -0.88600
H3499       H  0.58235944  0.67799322  0.59959829     0.35500
H3500       H  0.62156220  0.66997452  0.59716398     0.40600
H3501       H  0.60472080  0.80563592  0.54364642     0.40200
H3502       H  0.61915078  0.78034770  0.52556842     0.35100
C3503       C  0.88543661  0.75928326  0.55781909    -0.26700
C3504       C  0.90668231  0.73418668  0.55082610    -0.14700
C3505       C  0.90067441  0.69959916  0.55515251     0.35900
C3506       C  0.87292843  0.69048207  0.56541329    -0.26100
C3507       C  0.85072006  0.71521863  0.57160070    -0.15400
C3508       C  0.85751148  0.75012719  0.56837313     0.37000
N3509       N  0.83504739  0.77588426  0.57453688    -0.89600
H3510       H  0.88990743  0.78582199  0.55423372     0.18100
H3511       H  0.86807690  0.66370914  0.56796240     0.18100
N3512       N  0.92162774  0.67313037  0.54830990    -0.88600
H3513       H  0.84288131  0.80007977  0.57015626     0.35500
H3514       H  0.83482184  0.77593000  0.58987833     0.40600
H3515       H  0.94453748  0.67742808  0.55393861     0.40200
H3516       H  0.92284665  0.67432096  0.53299974     0.35100
C3517       C  0.58499440  0.79549507  0.45557392    -0.26700
C3518       C  0.57483693  0.76198349  0.45265007    -0.14700
C3519       C  0.59171863  0.74079645  0.43946125     0.35900
C3520       C  0.61928415  0.75358166  0.42983496    -0.26100
C3521       C  0.63022997  0.78694512  0.43335223    -0.15400
C3522       C  0.61219248  0.80838049  0.44602645     0.37000
N3523       N  0.62147967  0.84320063  0.44930603    -0.89600
H3524       H  0.57169663  0.81161201  0.46565915     0.18100
H3525       H  0.63275669  0.73715151  0.42003477     0.18100
N3526       N  0.58090298  0.70658037  0.43595240    -0.88600
H3527       H  0.60611916  0.85494688  0.45941848     0.35500
H3528       H  0.61865914  0.85642739  0.43605433     0.40600
H3529       H  0.58297813  0.69276334  0.44903820     0.40200
H3530       H  0.59585668  0.69448680  0.42574746     0.35100
C3531       C  0.89910021  0.80599697  0.44996135    -0.26700
C3532       C  0.90716693  0.77132758  0.45109810    -0.14700
C3533       C  0.88857986  0.74721642  0.44072218     0.35900
C3534       C  0.86099902  0.75829153  0.43069177    -0.26100
C3535       C  0.85155980  0.79273897  0.43088190    -0.15400
C3536       C  0.87168817  0.81703738  0.43984750     0.37000
N3537       N  0.86394252  0.85281409  0.43896758    -0.89600
H3538       H  0.91366954  0.82440565  0.45767535     0.18100
H3539       H  0.84596168  0.73955881  0.42360941     0.18100
N3540       N  0.89593275  0.71131325  0.44091734    -0.88600
H3541       H  0.86499435  0.86036936  0.42424167     0.35500
H3542       H  0.88120733  0.86713524  0.44632221     0.40600
H3543       H  0.91683278  0.70613700  0.44878139     0.40200
H3544       H  0.90058835  0.70402093  0.42644021     0.35100
C3545       C  0.57839677  0.57711838  0.54411858    -0.26700
C3546       C  0.56898481  0.54289854  0.54467661    -0.14700
C3547       C  0.58756300  0.51885468  0.55509679     0.35900
C3548       C  0.61558449  0.52959096  0.56467361    -0.26100
C3549       C  0.62627160  0.56348416  0.56308218    -0.15400
C3550       C  0.60728096  0.58740593  0.55246607     0.37000
N3551       N  0.61699119  0.62199093  0.54922917    -0.89600
H3552       H  0.56446058  0.59542464  0.53570276     0.18100
H3553       H  0.62931564  0.01401925  0.57183851     0.18100
N3554       N  0.57849750  0.98728002  0.55346389    -0.88600
H3555       H  0.63773744  0.62202425  0.54057759     0.35500
H3556       H  0.62198653  0.63302036  0.56275079     0.40600
H3557       H  0.55612052  0.98625433  0.56039718     0.40200
H3558       H  0.59413321  0.97259574  0.56202515     0.35100
C3559       C  0.88117354  0.50989747  0.55321058    -0.26700
C3560       C  0.90232480  0.53573542  0.54711112    -0.14700
C3561       C  0.89574839  0.56999386  0.55217766     0.35900
C3562       C  0.86720128  0.57778315  0.56196956    -0.26100
C3563       C  0.84506616  0.55235887  0.56701780    -0.15400
C3564       C  0.85246534  0.51788710  0.56317845     0.37000
N3565       N  0.82949902  0.99343137  0.56611282    -0.89600
H3566       H  0.88547543  0.98624655  0.54670382     0.18100
H3567       H  0.86175449  0.60424506  0.56510870     0.18100
N3568       N  0.91654350  0.59772052  0.54686017    -0.88600
H3569       H  0.83788033  0.96980217  0.56112439     0.35500
H3570       H  0.80950186  0.49511161  0.56002183     0.40600
H3571       H  0.93636803  0.58970295  0.53870893     0.40200
H3572       H  0.92549793  0.60776339  0.55991493     0.35100
C3573       C  0.59035954  0.95178628  0.46063492    -0.26700
C3574       C  0.57125581  0.97547395  0.45053092    -0.14700
C3575       C  0.58031532  0.98572354  0.43132775     0.35900
C3576       C  0.60862973  0.97234382  0.42300533    -0.26100
C3577       C  0.62838997  0.94950927  0.43349078    -0.15400
C3578       C  0.61908795  0.93938560  0.45264578     0.37000
N3579       N  0.63937968  0.91767744  0.46435175    -0.89600
H3580       H  0.58353876  0.94430099  0.47540949     0.18100
H3581       H  0.61546954  0.98034109  0.40833230     0.18100
N3582       N  0.56227543  0.01036229  0.42016610    -0.88600
H3583       H  0.62856407  0.91202580  0.47784747     0.35500
H3584       H  0.66013600  0.93144341  0.46753246     0.40600
H3585       H  0.54248377  0.01947356  0.42798254     0.40200
H3586       H  0.55335736  0.99794009  0.40779794     0.35100
C3587       C  0.86291296  0.97772420  0.42621304    -0.26700
C3588       C  0.84467565  0.95210002  0.43548436    -0.14700
C3589       C  0.85540616  0.93871673  0.45370437     0.35900
C3590       C  0.88395222  0.95075495  0.46188279    -0.26100
C3591       C  0.90157200  0.97694682  0.45296268    -0.15400
C3592       C  0.89105690  0.99054588  0.43477865     0.37000
N3593       N  0.90747983  0.01797206  0.42495115    -0.89600
H3594       H  0.85503100  0.98830019  0.41231738     0.18100
H3595       H  0.89185263  0.94073795  0.47592363     0.18100
N3596       N  0.83694608  0.91365587  0.46426811    -0.88600
H3597       H  0.91610927  0.00854606  0.41159627     0.35500
H3598       H  0.92740013  0.02610592  0.43283766     0.40600
H3599       H  0.81586955  0.92561226  0.46905300     0.40200
H3600       H  0.84895331  0.90552752  0.47690749     0.35100
loop_ 
_geom_bond_atom_site_label_1 
_geom_bond_atom_site_label_2 
_geom_bond_distance 
_geom_bond_site_symmetry_2 
_ccdc_geom_bond_type 
N1           H33   1.039       .  S
N1            C5   1.352       .  A
N1          C906   1.354       .  A
N2           C10   1.353   1_655  A
N2         C1809   1.352       .  A
N3           H34   1.037       .  S
N3            C8   1.354       .  A
N3          C907   1.354       .  A
N4           C12   1.350   1_655  A
N4         C1811   1.350       .  A
C5           C13   1.387       .  A
C5           C21   1.413       .  A
C6          N901   1.354       .  A
C6           C22   1.417       .  A
C6           C14   1.388       .  A
C7          N903   1.354       .  A
C7           C15   1.386       .  A
C7           C24   1.416       .  A
C8           C23   1.420       .  A
C8           C16   1.390       .  A
C9         N1802   1.350       .  A
C9           C21   1.411       .  A
C9           C17   1.386       .  A
C10          C24   1.416       .  A
C10          C18   1.386       .  A
C11        N1804   1.349       .  A
C11          C19   1.386       .  A
C11          C22   1.412       .  A
C12          C20   1.387       .  A
C12          C23   1.413       .  A
C13         C914   1.374       .  A
C13          H25   1.083       .  S
C14         C913   1.374       .  A
C14          H26   1.082       .  S
C15         C916   1.372       .  A
C15          H27   1.083       .  S
C16         C915   1.373       .  A
C16          H28   1.082       .  S
C17        C1818   1.377       .  A
C17          H29   1.082       .  S
C18        C1817   1.378   1_455  A
C18          H30   1.082       .  S
C19        C1820   1.376       .  A
C19          H31   1.082       .  S
C20        C1819   1.376   1_455  A
C20          H32   1.082       .  S
C21         C891   1.487       .  S
C22         C860   1.489       .  S
C23         C846   1.487       .  S
C24         C874   1.497       .  S
N35          H67   1.038       .  S
N35          C40   1.354       .  A
N35          C39   1.354       .  A
N36          C44   1.350       .  A
N36        C1843   1.350       .  A
N37          H68   1.038       .  S
N37          C42   1.355       .  A
N37          C41   1.355       .  A
N38          C46   1.350       .  A
N38        C1845   1.352       .  A
C39          C47   1.386       .  A
C39          C55   1.414       .  A
C40          C56   1.420       .  A
C40          C48   1.388       .  A
C41          C49   1.387       .  A
C41          C58   1.417       .  A
C42          C57   1.421       .  A
C42          C50   1.388       .  A
C43        N1836   1.350   1_455  A
C43          C55   1.410       .  A
C43          C51   1.387       .  A
C44          C58   1.410       .  A
C44          C52   1.386       .  A
C45        N1838   1.352   1_455  A
C45          C53   1.387       .  A
C45          C56   1.417       .  A
C46          C54   1.385       .  A
C46          C57   1.412       .  A
C47          C48   1.373       .  A
C47          H59   1.081       .  S
C48          H60   1.082       .  S
C49          C50   1.370       .  A
C49          H61   1.081       .  S
C50          H62   1.082       .  S
C51        C1852   1.374   1_455  A
C51          H63   1.082       .  S
C52        C1851   1.373       .  A
C52          H64   1.082       .  S
C53        C1854   1.377   1_455  A
C53          H65   1.082       .  S
C54        C1853   1.376       .  A
C54          H66   1.082       .  S
C55         C818   1.481       .  S
C56         C790   1.499       .  S
C57         C804   1.489       .  S
C58         C832   1.486       .  S
N69          N70   1.324       .  A
N69          N75   1.314       .  A
N69         Mn98   2.209       .  S
N70          C77   1.356       .  A
N71          N73   1.313       .  A
N71          N72   1.312       .  A
N71         Mn87   2.164       .  S
N72          C78   1.346       .  A
N73          N74   1.326       .  A
N73         Mn98   2.216       .  S
N74          C78   1.359       .  A
N75          N76   1.316       .  A
N75         Mn87   2.183       .  S
N76          C77   1.349       .  A
C77         C835   1.476       .  S
C78         C821   1.479       .  S
N79          N85   1.313       .  A
N79          N80   1.326       .  A
N79        Mn109   2.223       .  S
N80          C88   1.360       .  A
N81          N82   1.313       .  A
N81          N83   1.312       .  A
N81         Mn87   2.167       .  S
N82          C89   1.347       .  A
N83          N84   1.326       .  A
N83        Mn109   2.220       .  S
N84          C89   1.361       .  A
N85          N86   1.318       .  A
N85         Mn87   2.191       .  S
N86          C88   1.352       .  A
Mn87       Cl111   2.540       .  S
C88         C877   1.495       .  S
C89         C888   1.488       .  S
N90          N91   1.318       .  A
N90          N96   1.317       .  A
N90         Mn98   2.190       .  S
N91          C99   1.350       .  A
N92          N94   1.317       .  A
N92          N93   1.323       .  A
N92        Mn110   2.218       .  S
N93         C100   1.356       .  A
N94          N95   1.318       .  A
N94         Mn98   2.203       .  S
N95         C100   1.352       .  A
N96          N97   1.322       .  A
N96        Mn110   2.222       .  S
N97          C99   1.357       .  A
Mn98       Cl111   2.548       .  S
C99         C748   1.480       .  S
C100        C779   1.478       .  S
N101        N102   1.318       .  A
N101        N107   1.318       .  A
N101       Mn109   2.200       .  S
N102        C112   1.351       .  A
N103        N104   1.321       .  A
N103        N105   1.318       .  A
N103       Mn110   2.219       .  S
N104        C113   1.356       .  A
N105        N106   1.319       .  A
N105       Mn109   2.197       .  S
N106        C113   1.351       .  A
N107        N108   1.323       .  A
N107       Mn110   2.218       .  S
N108        C112   1.356       .  A
Mn109      Cl111   2.548       .  S
Mn110      Cl111   2.542       .  S
C112        C762   1.474       .  S
C113        C734   1.475       .  S
N114        N115   1.326       .  A
N114        N120   1.312       .  A
N114       Mn143   2.207       .  S
N115        C122   1.357       .  A
N116        N118   1.314       .  A
N116        N117   1.319       .  A
N116       Mn132   2.195       .  S
N117        C123   1.350       .  A
N118        N119   1.324       .  A
N118       Mn143   2.207       .  S
N119        C123   1.354       .  A
N120        N121   1.316       .  A
N120       Mn132   2.187       .  S
N121        C122   1.351       .  A
C122        C807   1.484       .  S
C123        C793   1.474       .  S
N124        N130   1.314       .  A
N124        N125   1.327       .  A
N124       Mn154   2.227       .  S
N125        C133   1.361       .  A
N126        N127   1.317       .  A
N126        N128   1.315       .  A
N126       Mn132   2.185       .  S
N127        C134   1.349       .  A
N128        N129   1.325       .  A
N128       Mn154   2.217       .  S
N129        C134   1.356       .  A
N130        N131   1.314       .  A
N130       Mn132   2.175       .  S
N131        C133   1.346       .  A
Mn132      Cl156   2.537       .  S
C133        C849   1.489       .  S
C134        C863   1.476       .  S
N135        N136   1.317       .  A
N135        N141   1.316       .  A
N135       Mn143   2.188       .  S
N136        C144   1.349       .  A
N137        N139   1.316       .  A
N137        N138   1.323       .  A
N137       Mn155   2.218       .  S
N138        C145   1.358       .  A
N139        N140   1.316       .  A
N139       Mn143   2.189       .  S
N140        C145   1.349       .  A
N141        N142   1.322       .  A
N141       Mn155   2.219       .  S
N142        C144   1.357       .  A
Mn143      Cl156   2.546       .  S
C144        C692   1.479       .  S
C145        C720   1.469       .  S
N146        N147   1.321       .  A
N146        N152   1.318       .  A
N146       Mn154   2.210       .  S
N147        C157   1.353       .  A
N148        N149   1.321       .  A
N148        N150   1.318       .  A
N148       Mn155   2.216       .  S
N149        C158   1.355       .  A
N150        N151   1.320       .  A
N150       Mn154   2.203       .  S
N151        C158   1.353       .  A
N152        N153   1.322       .  A
N152       Mn155   2.221       .  S
N153        C157   1.355       .  A
Mn154      Cl156   2.554       .  S
Mn155      Cl156   2.549       .  S
C157        C709   1.476       .  S
C158        C678   1.481       .  S
N159        H191   1.040   1_565  S
N159        C163   1.353       .  A
N159       C1064   1.354   1_556  A
N160        C167   1.353   1_565  A
N160        C168   1.353   1_565  A
N161        H192   1.039       .  S
N161        C165   1.354       .  A
N161       C1066   1.354   1_556  A
N162        C169   1.351       .  A
N162        C170   1.353       .  A
C163        C171   1.386       .  A
C163        C179   1.413   1_565  A
C164       N1059   1.355   1_554  A
C164        C180   1.420       .  A
C164        C172   1.389       .  A
C165        C173   1.385       .  A
C165        C182   1.415       .  A
C166       N1061   1.354   1_554  A
C166        C181   1.420       .  A
C166        C174   1.389       .  A
C167        C179   1.414       .  A
C167        C175   1.385       .  A
C168        C182   1.415   1_545  A
C168        C176   1.386       .  A
C169        C177   1.386       .  A
C169        C180   1.416       .  A
C170        C178   1.387       .  A
C170        C181   1.419       .  A
C171       C1072   1.373   1_556  A
C171        H183   1.082       .  S
C172       C1071   1.373   1_554  A
C172        H184   1.082       .  S
C173       C1074   1.376   1_556  A
C173        H185   1.082       .  S
C174       C1073   1.375   1_554  A
C174        H186   1.082       .  S
C175        C176   1.378       .  A
C175        H187   1.082       .  S
C176        H188   1.082       .  S
C177        C178   1.379       .  A
C177        H189   1.082       .  S
C178        H190   1.082       .  S
C179        C653   1.491       .  S
C180        C625   1.491       .  S
C181        C639   1.501       .  S
C182        C664   1.493   1_565  S
N193        H225   1.040       .  S
N193        C198   1.352       .  A
N193        C197   1.352   1_554  A
N194        C201   1.352       .  A
N194        C202   1.350       .  A
N195        H226   1.035       .  S
N195        C200   1.355   1_556  A
N195        C199   1.354       .  A
N196        C203   1.351       .  A
N196        C204   1.349       .  A
C197        C205   1.386       .  A
C197        C213   1.411       .  A
C198        C214   1.414       .  A
C198        C206   1.388       .  A
C199        C207   1.386       .  A
C199        C216   1.417       .  A
C200        C215   1.424       .  A
C200        C208   1.390       .  A
C201        C213   1.412       .  A
C201        C209   1.385       .  A
C202        C216   1.413       .  A
C202        C210   1.387       .  A
C203        C211   1.385       .  A
C203        C214   1.413       .  A
C204        C212   1.387       .  A
C204        C215   1.414       .  A
C205        C206   1.373   1_556  A
C205        H217   1.083       .  S
C206        H218   1.082       .  S
C207        C208   1.371   1_556  A
C207        H219   1.082       .  S
C208        H220   1.082       .  S
C209        C210   1.378       .  A
C209        H221   1.082       .  S
C210        H222   1.082       .  S
C211        C212   1.375       .  A
C211        H223   1.082       .  S
C212        H224   1.082       .  S
C213        C594   1.491       .  S
C214        C566   1.492       .  S
C215        C580   1.489       .  S
C216        C608   1.487       .  S
N227        N228   1.324       .  A
N227        N233   1.314       .  A
N227       Mn256   2.216       .  S
N228        C235   1.357       .  A
N229        N231   1.314       .  A
N229       N2030   1.316       .  A
N229       Mn245   2.185       .  S
N230        C236   1.349       .  A
N230       N2029   1.315       .  A
N231       N2032   1.326       .  A
N231       Mn256   2.218       .  S
N232        C236   1.358       .  A
N232       N2031   1.326       .  A
N233        N234   1.318       .  A
N233       Mn245   2.188       .  S
N234        C235   1.351       .  A
C235        C611   1.488       .  S
C236        C597   1.485       .  S
N237        N243   1.313       .  A
N237       N2038   1.326       .  A
N237       Mn267   2.222       .  S
N238        C246   1.360       .  A
N238       N2037   1.326       .  A
N239        N240   1.315       .  A
N239        N241   1.313       .  A
N239       Mn245   2.190       .  S
N240        C247   1.351       .  A
N241        N242   1.329       .  A
N241       Mn267   2.228       .  S
N242        C247   1.361       .  A
N243       N2044   1.318       .  A
N243       Mn245   2.191       .  S
N244        C246   1.352       .  A
N244       N2043   1.318       .  A
Mn245      Cl269   2.542       .  S
C246        C650   1.495       .  S
C247        C667   1.497       .  S
N248        N249   1.319       .  A
N248        N254   1.318       .  A
N248      Mn2056   2.203   1_455  S
N249        C257   1.353       .  A
N250        N252   1.317       .  A
N250        N251   1.322       .  A
N250       Mn268   2.218       .  S
N251        C258   1.356       .  A
N252        N253   1.319       .  A
N252       Mn256   2.199       .  S
N253        C258   1.351       .  A
N254        N255   1.322       .  A
N254      Mn2068   2.216   1_455  S
N255        C257   1.355       .  A
Mn256      N2048   2.203       .  S
Mn256      Cl269   2.550       .  S
C257        C524   1.480       .  S
C258        C555   1.479       .  S
N259        N260   1.320       .  A
N259        N265   1.318       .  A
N259       Mn267   2.203       .  S
N260        C270   1.352       .  A
N261        N262   1.320       .  A
N261        N263   1.317       .  A
N261      Mn2068   2.210   1_455  S
N262        C271   1.354       .  A
N263        N264   1.318       .  A
N263      Mn2067   2.198   1_455  S
N264        C271   1.352       .  A
N265        N266   1.322       .  A
N265       Mn268   2.220       .  S
N266        C270   1.356       .  A
Mn267      N2063   2.204       .  S
Mn267      Cl269   2.552       .  S
Mn268      N2054   2.220       .  S
Mn268      N2061   2.211       .  S
Mn268      Cl269   2.548       .  S
C270        C541   1.481       .  S
C271        C510   1.469       .  S
N272        H304   1.041       .  S
N272        C277   1.354       .  A
N272        C276   1.353       .  A
N273        C280   1.348       .  A
N273        C281   1.351       .  A
N274        H305   1.040       .  S
N274        C279   1.351       .  A
N274        C278   1.354       .  A
N275        C282   1.350       .  A
N275        C283   1.350       .  A
C276        C284   1.387       .  A
C276        C292   1.417       .  A
C277        C293   1.415       .  A
C277        C285   1.386       .  A
C278        C286   1.386       .  A
C278        C295   1.415       .  A
C279        C294   1.412       .  A
C279        C287   1.386       .  A
C280        C292   1.410       .  A
C280        C288   1.387       .  A
C281        C295   1.410       .  A
C281        C289   1.385       .  A
C282        C290   1.386       .  A
C282        C293   1.412       .  A
C283        C291   1.387       .  A
C283        C294   1.410       .  A
C284        C285   1.380       .  A
C284        H296   1.082       .  S
C285        H297   1.082       .  S
C286        C287   1.378       .  A
C286        H298   1.082       .  S
C287        H299   1.082       .  S
C288        C289   1.373       .  A
C288        H300   1.082       .  S
C289        H301   1.082       .  S
C290        C291   1.372       .  A
C290       H1202   1.082       .  S
C291       H1203   1.082       .  S
C292        C695   1.490       .  S
C293        C681   1.490       .  S
C294        C513   1.482       .  S
C295        C527   1.494       .  S
H302       C1190   1.082   1_545  S
H303       C1191   1.082   1_545  S
N306        H338   1.040       .  S
N306        C311   1.355       .  A
N306        C310   1.354       .  A
N307        C314   1.351       .  A
N307        C315   1.352       .  A
N308        H339   1.039       .  S
N308        C313   1.352       .  A
N308        C312   1.352       .  A
N309        C316   1.353       .  A
N309        C317   1.353       .  A
C310        C318   1.387       .  A
C310        C326   1.418       .  A
C311        C327   1.417       .  A
C311        C319   1.386       .  A
C312        C320   1.388       .  A
C312        C329   1.413       .  A
C313        C328   1.412       .  A
C313        C321   1.387       .  A
C314        C326   1.416       .  A
C314        C322   1.387       .  A
C315        C329   1.414       .  A
C315        C323   1.386       .  A
C316        C324   1.387       .  A
C316        C327   1.418       .  A
C317        C325   1.385       .  A
C317        C328   1.414       .  A
C318        C319   1.376       .  A
C318       H1230   1.082       .  S
C319       H1231   1.082       .  S
C320        C321   1.373       .  A
C320        H332   1.082       .  S
C321        H333   1.082       .  S
C322        C323   1.377       .  A
C322        H334   1.082       .  S
C323        H335   1.082       .  S
C324        C325   1.376       .  A
C324        H336   1.082       .  S
C325        H337   1.082       .  S
C326        C706   1.492       .  S
C327        C538   1.500       .  S
C328        C552   1.488       .  S
C329        C723   1.486       .  S
H330       C1218   1.082       .  S
H331       C1219   1.082   1_545  S
N340        H372   1.038       .  S
N340        C345   1.354       .  A
N340        C344   1.354       .  A
N341        C348   1.351       .  A
N341        C349   1.351       .  A
N342        H373   1.039       .  S
N342        C347   1.353       .  A
N342        C346   1.353       .  A
N343        C350   1.351       .  A
N343        C351   1.351       .  A
C344        C352   1.386       .  A
C344        C360   1.415       .  A
C345        C361   1.419       .  A
C345        C353   1.387       .  A
C346        C354   1.387       .  A
C346        C363   1.415       .  A
C347        C362   1.416       .  A
C347        C355   1.388       .  A
C348        C360   1.412       .  A
C348        C356   1.386       .  A
C349        C363   1.412       .  A
C349        C357   1.387       .  A
C350        C358   1.386       .  A
C350        C361   1.414       .  A
C351        C359   1.386       .  A
C351        C362   1.413       .  A
C352        C353   1.379       .  A
C352        H364   1.082       .  S
C353        H365   1.082       .  S
C354        C355   1.379       .  A
C354        H366   1.083       .  S
C355        H367   1.082       .  S
C356        C357   1.372       .  A
C356       H1268   1.082   1_545  S
C357       H1269   1.082   1_545  S
C358        C359   1.373       .  A
C358        H370   1.082       .  S
C359        H371   1.082       .  S
C360        C485   1.489       .  S
C361        C496   1.494       .  S
C362        C751   1.490       .  S
C363        C737   1.485       .  S
H368       C1256   1.082       .  S
H369       C1257   1.082       .  S
N374        H406   1.039       .  S
N374        C379   1.354       .  A
N374        C378   1.353       .  A
N375        C382   1.351       .  A
N375        C383   1.352       .  A
N376        H407   1.041       .  S
N376        C381   1.351       .  A
N376        C380   1.352       .  A
N377        C384   1.349       .  A
N377        C385   1.350       .  A
C378        C386   1.387       .  A
C378        C394   1.416       .  A
C379        C395   1.416       .  A
C379        C387   1.387       .  A
C380        C388   1.386       .  A
C380        C397   1.412       .  A
C381        C396   1.413       .  A
C381        C389   1.387       .  A
C382        C394   1.414       .  A
C382        C390   1.386       .  A
C383        C397   1.414       .  A
C383        C391   1.386       .  A
C384        C392   1.387       .  A
C384        C395   1.412       .  A
C385        C393   1.386       .  A
C385        C396   1.412       .  A
C386        C387   1.378       .  A
C386       H1298   1.082   1_545  S
C387       H1299   1.082   1_545  S
C388        C389   1.376       .  A
C388        H400   1.082       .  S
C389        H401   1.082       .  S
C390        C391   1.376       .  A
C390        H402   1.082       .  S
C391        H403   1.082       .  S
C392        C393   1.377       .  A
C392        H404   1.082       .  S
C393        H405   1.082       .  S
C394        C765   1.492       .  S
C395        C457   1.491       .  S
C396        C468   1.492       .  S
C397        C776   1.493       .  S
H398       C1286   1.082       .  S
H399       C1287   1.082       .  S
N408        N409   1.326       .  A
N408        N414   1.314       .  A
N408       Mn437   2.220       .  S
N409        C416   1.360       .  A
N410        N412   1.315       .  A
N410       N2211   1.319       .  A
N410       Mn426   2.200       .  S
N411        C417   1.351       .  A
N411       N2210   1.319       .  A
N412       N2213   1.323       .  A
N412       Mn437   2.202       .  S
N413        C417   1.353       .  A
N413       N2212   1.324       .  A
N414        N415   1.315       .  A
N414       Mn426   2.178       .  S
N415        C416   1.347       .  A
C416        C583   1.485       .  S
C417        C569   1.474       .  S
N418        N424   1.314       .  A
N418       N2219   1.326       .  A
N418       Mn448   2.218       .  S
N419        C427   1.355       .  A
N419       N2218   1.325       .  A
N420        N421   1.319       .  A
N420        N422   1.315       .  A
N420       Mn426   2.203       .  S
N421        C428   1.351       .  A
N422        N423   1.325       .  A
N422       Mn448   2.213       .  S
N423        C428   1.355       .  A
N424       N2225   1.318       .  A
N424       Mn426   2.193       .  S
N425        C427   1.352       .  A
N425       N2224   1.318       .  A
Mn426      Cl450   2.536       .  S
C427        C622   1.481       .  S
C428        C636   1.477       .  S
N429        N430   1.319       .  A
N429        N435   1.318       .  A
N429      Mn2237   2.204   1_455  S
N430        C438   1.352       .  A
N431        N433   1.317       .  A
N431        N432   1.321       .  A
N431       Mn449   2.214       .  S
N432        C439   1.354       .  A
N433        N434   1.320       .  A
N433       Mn437   2.193       .  S
N434        C439   1.352       .  A
N435        N436   1.323       .  A
N435      Mn2249   2.217   1_455  S
N436        C438   1.356       .  A
Mn437      N2229   2.204       .  S
Mn437      Cl450   2.553       .  S
C438        C499   1.478       .  S
C439        C471   1.486       .  S
N440        N441   1.322       .  A
N440        N446   1.317       .  A
N440       Mn448   2.211       .  S
N441        C451   1.355       .  A
N442        N443   1.323       .  A
N442        N444   1.317       .  A
N442      Mn2249   2.224   1_455  S
N443        C452   1.357       .  A
N444        N445   1.317       .  A
N444      Mn2248   2.187   1_455  S
N445        C452   1.349       .  A
N446        N447   1.318       .  A
N446       Mn449   2.205       .  S
N447        C451   1.352       .  A
Mn448      N2244   2.192       .  S
Mn448      Cl450   2.558       .  S
Mn449      N2235   2.214       .  S
Mn449      N2242   2.219       .  S
Mn449      Cl450   2.538       .  S
C451        C454   1.483       .  S
C452        C482   1.474       .  S
C453        C454   1.405       .  A
C453       C1358   1.409       .  A
C453        H460   1.084       .  S
C454        C455   1.416       .  A
C455       C1356   1.403       .  A
C455        N462   1.438       .  S
C456        C457   1.400       .  A
C456       C1355   1.404   1_545  A
C456        H461   1.084       .  S
C457        C458   1.412       .  A
C458       C1353   1.409       .  A
C458        N459   1.438       .  S
N459        H463   1.045       .  S
N459        H464   1.044       .  S
N462        H465   1.045       .  S
N462       H1366   1.045       .  S
H466       N1362   1.045       .  S
C467        C468   1.404       .  A
C467        C472   1.405       .  A
C467        H474   1.084       .  S
C468        C469   1.417       .  A
C469        C470   1.401       .  A
C469        N476   1.438       .  S
C470        C471   1.405       .  A
C470        H475   1.084       .  S
C471        C472   1.416       .  A
C472        N473   1.438       .  S
N473        H477   1.046       .  S
N473        H478   1.045       .  S
N476        H479   1.042       .  S
N476        H480   1.046       .  S
C481        C482   1.400       .  A
C481       C1386   1.404       .  A
C481        H488   1.084       .  S
C482        C483   1.412       .  A
C483       C1384   1.404       .  A
C483        N490   1.439       .  S
C484        C485   1.403       .  A
C484       C1383   1.406       .  A
C484        H489   1.084       .  S
C485        C486   1.418       .  A
C486       C1381   1.404   1_545  A
C486        N487   1.438       .  S
N487        H491   1.045   1_545  S
N487        H492   1.043       .  S
N490       H2293   1.045       .  S
N490       H2294   1.046       .  S
H493       N2290   1.046       .  S
H494       N2290   1.045       .  S
C495        C496   1.407       .  A
C495        C500   1.405       .  A
C495        H502   1.084       .  S
C496        C497   1.417       .  A
C497        C498   1.400       .  A
C497        N504   1.439       .  S
C498        C499   1.404       .  A
C498        H503   1.084       .  S
C499        C500   1.414       .  A
C500        N501   1.438       .  S
N501        H505   1.045       .  S
N501        H506   1.043       .  S
N504        H507   1.043       .  S
N504       H2308   1.045       .  S
H508       N2304   1.045       .  S
C509        C510   1.399       .  A
C509       C1414   1.403   1_545  A
C509        H516   1.084       .  S
C510        C511   1.412       .  A
C511       C1412   1.402   1_545  A
C511       N2318   1.439       .  S
C512        C513   1.401       .  A
C512       C1411   1.403       .  A
C512        H517   1.084       .  S
C513        C514   1.417       .  A
C514       C1409   1.403       .  A
C514        N515   1.438       .  S
N515        H519   1.045       .  S
N515        H520   1.044       .  S
N518       C2311   1.439       .  S
N518        H521   1.045       .  S
N518        H522   1.045       .  S
C523        C524   1.402       .  A
C523        C528   1.409       .  A
C523        H530   1.084       .  S
C524        C525   1.414       .  A
C525        C526   1.405       .  A
C525        N532   1.438       .  S
C526        C527   1.402       .  A
C526        H531   1.084       .  S
C527        C528   1.414       .  A
C528        N529   1.437       .  S
N529        H533   1.046       .  S
N529        H534   1.045       .  S
N532       H2335   1.046       .  S
N532       H2336   1.046       .  S
H535       N2332   1.046       .  S
H536       N2332   1.046       .  S
C537        C538   1.405       .  A
C537        C542   1.410       .  A
C537        H544   1.084       .  S
C538        C539   1.413       .  A
C539       C1440   1.409       .  A
C539        N546   1.438       .  S
C540        C541   1.404       .  A
C540       C1439   1.407   1_545  A
C540        H545   1.083       .  S
C541       C1442   1.411   1_545  A
C542       C1441   1.413       .  A
C542        N543   1.438       .  S
N543        H547   1.046       .  S
N543       H1448   1.046       .  S
N546        H549   1.046       .  S
N546       H1450   1.045       .  S
H548       N1443   1.046   1_545  S
H550       N1446   1.045   1_545  S
C551        C552   1.402       .  A
C551        C556   1.408       .  A
C551        H558   1.084       .  S
C552        C553   1.410       .  A
C553        C554   1.405       .  A
C553        N560   1.438       .  S
C554        C555   1.404       .  A
C554        H559   1.084       .  S
C555        C556   1.412       .  A
C556        N557   1.438       .  S
N557        H561   1.046       .  S
N557        H562   1.045       .  S
N560        H563   1.045       .  S
N560        H564   1.046       .  S
C565        C566   1.407       .  A
C565        C570   1.403       .  A
C565        H572   1.084       .  S
C566        C567   1.405       .  A
C567        C568   1.403       .  A
C567        N574   1.433       .  S
C568        C569   1.401       .  A
C568        H573   1.080       .  S
C569        C570   1.415       .  A
C570        N571   1.438       .  S
N571        H575   1.046       .  S
N571        H576   1.043       .  S
N574        H577   1.043       .  S
N574        H578   1.045       .  S
C579        C580   1.399       .  A
C579        C584   1.396       .  A
C579        H586   1.085       .  S
C580        C581   1.418       .  A
C581        C582   1.406       .  A
C581        N588   1.438       .  S
C582        C583   1.405       .  A
C582        H587   1.084       .  S
C583        C584   1.416       .  A
C584        N585   1.433       .  S
N585        H589   1.045       .  S
N585        H590   1.046       .  S
N588        H591   1.043       .  S
N588        H592   1.046       .  S
C593        C594   1.401       .  A
C593        C598   1.396       .  A
C593        H600   1.084       .  S
C594        C595   1.411       .  A
C595        C596   1.413       .  A
C595        N602   1.437       .  S
C596        C597   1.407       .  A
C596        H601   1.083       .  S
C597        C598   1.412       .  A
C598        N599   1.433       .  S
N599        H603   1.046       .  S
N599        H604   1.044       .  S
N602        H605   1.046       .  S
N602        H606   1.045       .  S
C607        C608   1.398       .  A
C607        C612   1.399       .  A
C607        H614   1.084       .  S
C608        C609   1.417       .  A
C609        C610   1.407       .  A
C609        N616   1.438       .  S
C610        C611   1.407       .  A
C610        H615   1.084       .  S
C611        C612   1.414       .  A
C612        N613   1.431       .  S
N613        H617   1.046       .  S
N613        H618   1.046       .  S
N616        H619   1.044       .  S
N616        H620   1.046       .  S
C621        C622   1.402       .  A
C621        C626   1.413       .  A
C621        H628   1.083       .  S
C622        C623   1.405       .  A
C623        C624   1.401       .  A
C623        N630   1.426       .  S
C624        C625   1.399       .  A
C624        H629   1.084       .  S
C625        C626   1.415       .  A
C626        N627   1.437       .  S
N627        H631   1.046       .  S
N627        H632   1.045       .  S
N630        H633   1.045       .  S
N630        H634   1.045       .  S
C635        C636   1.400       .  A
C635        C640   1.405       .  A
C635        H642   1.084       .  S
C636        C637   1.411       .  A
C637        C638   1.411       .  A
C637        N644   1.439       .  S
C638        C639   1.405       .  A
C638        H643   1.083       .  S
C639        C640   1.413       .  A
C640        N641   1.433       .  S
N641        H645   1.046       .  S
N641        H646   1.045       .  S
N644        H647   1.044       .  S
N644        H648   1.046       .  S
C649        C650   1.408       .  A
C649        C654   1.410   1_545  A
C649       H1556   1.083   1_545  S
C650        C651   1.415       .  A
C651        C652   1.401       .  A
C651        N658   1.431       .  S
C652        C653   1.400       .  A
C652        H657   1.085       .  S
C653        C654   1.417   1_545  A
C654       N1555   1.437       .  S
N655       C1554   1.437       .  S
N655        H659   1.045       .  S
N655        H660   1.044       .  S
H656       C1549   1.083       .  S
N658        H661   1.046       .  S
N658        H662   1.046       .  S
C663        C664   1.408   1_565  A
C663        C668   1.418   1_565  A
C663        H670   1.083       .  S
C664        C665   1.413       .  A
C665        C666   1.395       .  A
C665        N672   1.440       .  S
C666        C667   1.405       .  A
C666        H671   1.082       .  S
C667        C668   1.417       .  A
C668        N669   1.437   1_545  S
N669        H673   1.046       .  S
N669        H674   1.045       .  S
N672        H675   1.043       .  S
N672        H676   1.045       .  S
C677        C678   1.405       .  A
C677       C1582   1.400   1_545  A
C677        H684   1.084       .  S
C678        C679   1.418   1_545  A
C679       C1580   1.404       .  A
C679        N686   1.439   1_565  S
C680        C681   1.403       .  A
C680       C1579   1.404       .  A
C680        H685   1.084       .  S
C681        C682   1.416       .  A
C682       C1577   1.400       .  A
C682        N683   1.439       .  S
N683        H687   1.046       .  S
N683        H688   1.043       .  S
N686        H689   1.042       .  S
N686        H690   1.046       .  S
C691        C692   1.405       .  A
C691        C696   1.402       .  A
C691        H698   1.084       .  S
C692        C693   1.411       .  A
C693        C694   1.403       .  A
C693        N700   1.437       .  S
C694        C695   1.405       .  A
C694        H699   1.084       .  S
C695        C696   1.415       .  A
C696        N697   1.438       .  S
N697        H701   1.045       .  S
N697        H702   1.043       .  S
N700        H703   1.046       .  S
N700        H704   1.045       .  S
C705        C706   1.402       .  A
C705       C1610   1.407       .  A
C705        H712   1.084       .  S
C706        C707   1.413       .  A
C707       C1608   1.409       .  A
C707        N714   1.438       .  S
C708        C709   1.402       .  A
C708       C1607   1.410   1_545  A
C708        H713   1.084       .  S
C709        C710   1.411   1_545  A
C710       C1605   1.406       .  A
C710        N711   1.438   1_565  S
N711        H715   1.045   1_545  S
N711        H716   1.045   1_545  S
N714        H717   1.045       .  S
N714        H718   1.046       .  S
C719        C720   1.401       .  A
C719        C724   1.408       .  A
C719        H726   1.084       .  S
C720        C721   1.408       .  A
C721        C722   1.401       .  A
C721        N728   1.433       .  S
C722        C723   1.401       .  A
C722        H727   1.084       .  S
C723        C724   1.411       .  A
C724        N725   1.437       .  S
N725        H729   1.046       .  S
N725        H730   1.046       .  S
N728        H731   1.046       .  S
N728        H732   1.045       .  S
C733        C738   1.404   1_565  A
C733       C1634   1.405       .  A
C733        H740   1.084       .  S
C734        C735   1.417       .  A
C734       C1633   1.405       .  A
C735        C736   1.403       .  A
C735        N742   1.439       .  S
C736       C1637   1.402       .  A
C736        H741   1.084       .  S
C737        C738   1.409       .  A
C737       C1636   1.401       .  A
C738        N739   1.438       .  S
N739        H743   1.046   1_545  S
N739        H744   1.045       .  S
N742        H745   1.043       .  S
N742        H746   1.046       .  S
C747        C748   1.403       .  A
C747        C752   1.400       .  A
C747        H754   1.084       .  S
C748        C749   1.415       .  A
C749        C750   1.400       .  A
C749        N756   1.433       .  S
C750        C751   1.403       .  A
C750        H755   1.084       .  S
C751        C752   1.418       .  A
C752        N753   1.438       .  S
N753        H757   1.045       .  S
N753        H758   1.043       .  S
N756        H759   1.045       .  S
N756        H760   1.044       .  S
C761        C762   1.404       .  A
C761       C1666   1.405       .  A
C761        H768   1.084       .  S
C762        C763   1.407       .  A
C763       C1664   1.408       .  A
C763        N770   1.437       .  S
C764        C765   1.405       .  A
C764       C1663   1.408   1_545  A
C764        H769   1.084       .  S
C765        C766   1.411       .  A
C766       C1661   1.406       .  A
C766        N767   1.438       .  S
N767        H771   1.046       .  S
N767        H772   1.046       .  S
N770        H773   1.046       .  S
N770        H774   1.046       .  S
C775        C776   1.401       .  A
C775        C780   1.404       .  A
C775        H782   1.084       .  S
C776        C777   1.414       .  A
C777        C778   1.410       .  A
C777        N784   1.438       .  S
C778        C779   1.401       .  A
C778        H783   1.084       .  S
C779        C780   1.413       .  A
C780        N781   1.439       .  S
N781        H785   1.046       .  S
N781        H786   1.046       .  S
N784        H787   1.045       .  S
N784        H788   1.046       .  S
C789        C790   1.405       .  A
C789        C794   1.404       .  A
C789        H796   1.084       .  S
C790        C791   1.413       .  A
C791        C792   1.403       .  A
C791        N798   1.433       .  S
C792        C793   1.399       .  A
C792        H797   1.084       .  S
C793        C794   1.416       .  A
C794        N795   1.438       .  S
N795        H799   1.046       .  S
N795        H800   1.044       .  S
N798        H801   1.045       .  S
N798        H802   1.046       .  S
C803        C804   1.406       .  A
C803        C808   1.414       .  A
C803        H810   1.083       .  S
C804        C805   1.413       .  A
C805        C806   1.393       .  A
C805        N812   1.438       .  S
C806        C807   1.402       .  A
C806        H811   1.082       .  S
C807        C808   1.414       .  A
C808        N809   1.437       .  S
N809        H813   1.046       .  S
N809        H814   1.046       .  S
N812        H815   1.043       .  S
N812        H816   1.046       .  S
C817        C818   1.396       .  A
C817        C822   1.397       .  A
C817        H824   1.084       .  S
C818        C819   1.410       .  A
C819        C820   1.410       .  A
C819        N826   1.437       .  S
C820        C821   1.405       .  A
C820        H825   1.083       .  S
C821        C822   1.416       .  A
C822        N823   1.438       .  S
N823        H827   1.045       .  S
N823        H828   1.046       .  S
N826        H829   1.044       .  S
N826        H830   1.046       .  S
C831        C832   1.400       .  A
C831        C836   1.401       .  A
C831        H838   1.084       .  S
C832        C833   1.418       .  A
C833        C834   1.404       .  A
C833        N840   1.438       .  S
C834        C835   1.402       .  A
C834        H839   1.084       .  S
C835        C836   1.412       .  A
C836        N837   1.438       .  S
N837        H841   1.046       .  S
N837        H842   1.045       .  S
N840        H843   1.044       .  S
N840        H844   1.045       .  S
C845        C846   1.397       .  A
C845        C850   1.395       .  A
C845        H852   1.084       .  S
C846        C847   1.410       .  A
C847        C848   1.410       .  A
C847       N1754   1.437   1_545  S
C848        C849   1.406       .  A
C848       H1753   1.083       .  S
C849        C850   1.424       .  A
C850        N851   1.432       .  S
N851        H855   1.044       .  S
N851        H856   1.043       .  S
H853       C1748   1.083       .  S
N854       C1747   1.437       .  S
N854        H857   1.045       .  S
N854        H858   1.046       .  S
C859        C860   1.406       .  A
C859        C864   1.408       .  A
C859       H1766   1.084   1_545  S
C860        C861   1.415       .  A
C861        C862   1.398       .  A
C861        N868   1.437       .  S
C862        C863   1.402       .  A
C862        H867   1.083       .  S
C863        C864   1.408       .  A
C864       N1765   1.437   1_545  S
N865       C1764   1.437       .  S
N865        H869   1.046       .  S
N865       H1770   1.045       .  S
H866       C1759   1.084       .  S
N868        H871   1.042       .  S
N868        H872   1.046       .  S
H870       N1765   1.046   1_545  S
C873        C874   1.402       .  A
C873        C878   1.402       .  A
C873        H880   1.084       .  S
C874        C875   1.418       .  A
C875        C876   1.410       .  A
C875        N882   1.438       .  S
C876        C877   1.408       .  A
C876        H881   1.084       .  S
C877        C878   1.417       .  A
C878        N879   1.438       .  S
N879        H883   1.046       .  S
N879        H884   1.046       .  S
N882        H885   1.043       .  S
N882        H886   1.046       .  S
C887        C888   1.407       .  A
C887        C892   1.407       .  A
C887        H894   1.083       .  S
C888        C889   1.419       .  A
C889        C890   1.398       .  A
C889        N896   1.439       .  S
C890        C891   1.398       .  A
C890        H895   1.084       .  S
C891        C892   1.416       .  A
C892        N893   1.438       .  S
N893        H897   1.045       .  S
N893        H898   1.043       .  S
N896        H899   1.046       .  S
N896        H900   1.046       .  S
N901        H933   1.038   1_545  S
N901        C905   1.353       .  A
N902       C2709   1.352       .  A
N902        C910   1.353   1_655  A
N903        H934   1.037       .  S
N903        C908   1.355       .  A
N904       C2711   1.349       .  A
N904        C912   1.349   1_655  A
C905        C913   1.387       .  A
C905        C921   1.415   1_545  A
C906        C922   1.416       .  A
C906        C914   1.388       .  A
C907        C915   1.385       .  A
C907        C924   1.416   1_545  A
C908        C923   1.419       .  A
C908        C916   1.389       .  A
C909       N2702   1.351       .  A
C909        C921   1.412       .  A
C909        C917   1.386       .  A
C910        C924   1.416       .  A
C910        C918   1.386       .  A
C911       N2704   1.349       .  A
C911        C919   1.386       .  A
C911        C922   1.412       .  A
C912        C920   1.387       .  A
C912        C923   1.411       .  A
C913        H925   1.083       .  S
C914        H926   1.082       .  S
C915        H927   1.083       .  S
C916        H928   1.082       .  S
C917       C2718   1.377       .  A
C917        H929   1.082       .  S
C918       C2717   1.378   1_455  A
C918        H930   1.082       .  S
C919       C2720   1.377       .  A
C919        H931   1.082       .  S
C920       C2719   1.377   1_455  A
C920        H932   1.082       .  S
C921       C1791   1.489       .  S
C922       C1760   1.487       .  S
C923       C1746   1.485       .  S
C924       C1774   1.497       .  S
N935        H967   1.039       .  S
N935        C940   1.353       .  A
N935        C939   1.352       .  A
N936       C2743   1.352       .  A
N936        C944   1.352       .  A
N937        H968   1.038       .  S
N937        C942   1.355       .  A
N937        C941   1.354       .  A
N938       C2745   1.351       .  A
N938        C946   1.349       .  A
C939        C947   1.385       .  A
C939        C955   1.410       .  A
C940        C956   1.418       .  A
C940        C948   1.388       .  A
C941        C949   1.386       .  A
C941        C958   1.416       .  A
C942        C957   1.420       .  A
C942        C950   1.388       .  A
C943       N2736   1.351   1_455  A
C943        C955   1.411       .  A
C943        C951   1.386       .  A
C944        C958   1.413       .  A
C944        C952   1.386       .  A
C945       N2738   1.352   1_455  A
C945        C953   1.386       .  A
C945        C956   1.416       .  A
C946        C954   1.385       .  A
C946        C957   1.411       .  A
C947        C948   1.374       .  A
C947        H959   1.082       .  S
C948        H960   1.082       .  S
C949        C950   1.373       .  A
C949        H961   1.081       .  S
C950        H962   1.082       .  S
C951       C2752   1.375   1_455  A
C951        H963   1.082       .  S
C952       C2751   1.376       .  A
C952        H964   1.082       .  S
C953       C2754   1.378   1_455  A
C953        H965   1.082       .  S
C954       C2753   1.377       .  A
C954        H966   1.082       .  S
C955       C1718   1.483       .  S
C956       C1690   1.497       .  S
C957       C1704   1.487       .  S
C958       C1732   1.489       .  S
N969        N970   1.325       .  A
N969        N975   1.314       .  A
N969       Mn998   2.212       .  S
N970        C977   1.357       .  A
N971        N973   1.313       .  A
N971        N972   1.313       .  A
N971       Mn987   2.171       .  S
N972        C978   1.347       .  A
N973        N974   1.327       .  A
N973       Mn998   2.224       .  S
N974        C978   1.360       .  A
N975        N976   1.317       .  A
N975       Mn987   2.190       .  S
N976        C977   1.351       .  A
C977       C1735   1.483       .  S
C978       C1721   1.486       .  S
N979        N985   1.313       .  A
N979        N980   1.326       .  A
N979      Mn1009   2.217       .  S
N980        C988   1.358       .  A
N981        N982   1.314       .  A
N981        N983   1.312       .  A
N981       Mn987   2.173       .  S
N982        C989   1.348       .  A
N983        N984   1.326       .  A
N983      Mn1009   2.220       .  S
N984        C989   1.360       .  A
N985        N986   1.318       .  A
N985       Mn987   2.197       .  S
N986        C988   1.353       .  A
Mn987     Cl1011   2.537       .  S
C988       C1777   1.494       .  S
C989       C1788   1.489       .  S
N990        N991   1.320       .  A
N990        N996   1.317       .  A
N990       Mn998   2.197       .  S
N991        C999   1.352       .  A
N992        N994   1.317       .  A
N992        N993   1.323       .  A
N992      Mn1010   2.216       .  S
N993       C1000   1.356       .  A
N994        N995   1.318       .  A
N994       Mn998   2.205       .  S
N995       C1000   1.352       .  A
N996        N997   1.322       .  A
N996      Mn1010   2.223       .  S
N997        C999   1.357       .  A
Mn998     Cl1011   2.550       .  S
C999       C1648   1.480       .  S
C1000      C1679   1.475       .  S
N1001      N1002   1.318       .  A
N1001      N1007   1.318       .  A
N1001     Mn1009   2.195       .  S
N1002      C1012   1.350       .  A
N1003      N1004   1.321       .  A
N1003      N1005   1.317       .  A
N1003     Mn1010   2.213       .  S
N1004      C1013   1.356       .  A
N1005      N1006   1.318       .  A
N1005     Mn1009   2.195       .  S
N1006      C1013   1.351       .  A
N1007      N1008   1.324       .  A
N1007     Mn1010   2.225       .  S
N1008      C1012   1.357       .  A
Mn1009    Cl1011   2.549       .  S
Mn1010    Cl1011   2.546       .  S
C1012      C1662   1.477       .  S
C1013      C1634   1.475       .  S
N1014      N1015   1.325       .  A
N1014      N1020   1.313       .  A
N1014     Mn1043   2.209       .  S
N1015      C1022   1.356       .  A
N1016      N1018   1.314       .  A
N1016      N1017   1.319       .  A
N1016     Mn1032   2.199       .  S
N1017      C1023   1.351       .  A
N1018      N1019   1.324       .  A
N1018     Mn1043   2.202       .  S
N1019      C1023   1.353       .  A
N1020      N1021   1.317       .  A
N1020     Mn1032   2.194       .  S
N1021      C1022   1.352       .  A
C1022      C1707   1.482       .  S
C1023      C1693   1.473       .  S
N1024      N1030   1.314       .  A
N1024      N1025   1.325       .  A
N1024     Mn1054   2.219       .  S
N1025      C1033   1.359       .  A
N1026      N1027   1.316       .  A
N1026      N1028   1.315       .  A
N1026     Mn1032   2.189       .  S
N1027      C1034   1.350       .  A
N1028      N1029   1.324       .  A
N1028     Mn1054   2.210       .  S
N1029      C1034   1.355       .  A
N1030      N1031   1.316       .  A
N1030     Mn1032   2.182       .  S
N1031      C1033   1.348       .  A
Mn1032    Cl1056   2.538       .  S
C1033      C1749   1.486       .  S
C1034      C1763   1.476       .  S
N1035      N1036   1.318       .  A
N1035      N1041   1.316       .  A
N1035     Mn1043   2.194       .  S
N1036      C1044   1.351       .  A
N1037      N1039   1.317       .  A
N1037      N1038   1.323       .  A
N1037     Mn1055   2.220       .  S
N1038      C1045   1.357       .  A
N1039      N1040   1.317       .  A
N1039     Mn1043   2.189       .  S
N1040      C1045   1.349       .  A
N1041      N1042   1.320       .  A
N1041     Mn1055   2.212       .  S
N1042      C1044   1.355       .  A
Mn1043    Cl1056   2.548       .  S
C1044      C1592   1.477       .  S
C1045      C1620   1.471       .  S
N1046      N1047   1.320       .  A
N1046      N1052   1.318       .  A
N1046     Mn1054   2.207       .  S
N1047      C1057   1.352       .  A
N1048      N1049   1.321       .  A
N1048      N1050   1.317       .  A
N1048     Mn1055   2.214       .  S
N1049      C1058   1.355       .  A
N1050      N1051   1.320       .  A
N1050     Mn1054   2.199       .  S
N1051      C1058   1.353       .  A
N1052      N1053   1.323       .  A
N1052     Mn1055   2.222       .  S
N1053      C1057   1.356       .  A
Mn1054    Cl1056   2.551       .  S
Mn1055    Cl1056   2.547       .  S
C1057      C1609   1.478       .  S
C1058      C1578   1.480       .  S
N1059      H1091   1.038       .  S
N1059      C1063   1.355       .  A
N1060      C1067   1.353       .  A
N1060      C1068   1.353       .  A
N1061      H1092   1.039       .  S
N1061      C1065   1.353       .  A
N1062      C1069   1.351       .  A
N1062      C1070   1.352       .  A
C1063      C1071   1.385       .  A
C1063      C1079   1.415       .  A
C1064      C1080   1.417       .  A
C1064      C1072   1.389       .  A
C1065      C1073   1.385       .  A
C1065      C1082   1.413       .  A
C1066      C1081   1.421       .  A
C1066      C1074   1.389       .  A
C1067      C1079   1.414       .  A
C1067      C1075   1.385       .  A
C1068      C1082   1.414       .  A
C1068      C1076   1.386       .  A
C1069      C1077   1.385       .  A
C1069      C1080   1.414       .  A
C1070      C1078   1.387       .  A
C1070      C1081   1.417       .  A
C1071      H1083   1.082       .  S
C1072      H1084   1.082       .  S
C1073      H1085   1.082       .  S
C1074      H1086   1.082       .  S
C1075      C1076   1.377       .  A
C1075      H1087   1.082       .  S
C1076      H1088   1.082       .  S
C1077      C1078   1.378       .  A
C1077      H1089   1.082       .  S
C1078      H1090   1.082       .  S
C1079      C1553   1.492       .  S
C1080      C1525   1.490       .  S
C1081      C1539   1.497       .  S
C1082      C1564   1.491       .  S
N1093      H1125   1.039       .  S
N1093      C1098   1.353   1_556  A
N1093      C1097   1.352       .  A
N1094      C1101   1.352       .  A
N1094      C1102   1.351       .  A
N1095      H1126   1.033       .  S
N1095      C1100   1.355   1_556  A
N1095      C1099   1.353       .  A
N1096      C1103   1.350       .  A
N1096      C1104   1.349       .  A
C1097      C1105   1.387       .  A
C1097      C1113   1.414       .  A
C1098      C1114   1.416       .  A
C1098      C1106   1.388       .  A
C1099      C1107   1.387       .  A
C1099      C1116   1.416       .  A
C1100      C1115   1.421       .  A
C1100      C1108   1.389       .  A
C1101      C1113   1.413       .  A
C1101      C1109   1.386       .  A
C1102      C1116   1.413       .  A
C1102      C1110   1.386       .  A
C1103      C1111   1.386       .  A
C1103      C1114   1.413       .  A
C1104      C1112   1.386       .  A
C1104      C1115   1.412       .  A
C1105      C1106   1.374   1_556  A
C1105      H1117   1.083       .  S
C1106      H1118   1.082       .  S
C1107      C1108   1.370   1_556  A
C1107      H1119   1.082       .  S
C1108      H1120   1.082       .  S
C1109      C1110   1.376       .  A
C1109      H1121   1.082       .  S
C1110      H1122   1.082       .  S
C1111      C1112   1.375       .  A
C1111      H1123   1.082       .  S
C1112      H1124   1.082       .  S
C1113      C1494   1.494       .  S
C1114      C1466   1.491       .  S
C1115      C1480   1.488       .  S
C1116      C1508   1.484       .  S
N1127      N1128   1.322       .  A
N1127      N1133   1.314       .  A
N1127     Mn1156   2.208       .  S
N1128      C1135   1.355       .  A
N1129      N1131   1.313       .  A
N1129      N2930   1.316       .  A
N1129     Mn1145   2.186       .  S
N1130      C1136   1.350       .  A
N1130      N2929   1.316       .  A
N1131      N2932   1.325       .  A
N1131     Mn1156   2.212       .  S
N1132      C1136   1.357       .  A
N1132      N2931   1.324       .  A
N1133      N1134   1.318       .  A
N1133     Mn1145   2.187       .  S
N1134      C1135   1.351       .  A
C1135      C1511   1.482       .  S
C1136      C1497   1.483       .  S
N1137      N1143   1.314       .  A
N1137      N2938   1.327       .  A
N1137     Mn1167   2.230       .  S
N1138      C1146   1.360       .  A
N1138      N2937   1.327       .  A
N1139      N1140   1.316       .  A
N1139      N1141   1.313       .  A
N1139     Mn1145   2.187       .  S
N1140      C1147   1.352       .  A
N1141      N1142   1.327       .  A
N1141     Mn1167   2.224       .  S
N1142      C1147   1.360       .  A
N1143      N2944   1.318       .  A
N1143     Mn1145   2.189       .  S
N1144      C1146   1.351       .  A
N1144      N2943   1.317       .  A
Mn1145    Cl1169   2.545       .  S
C1146      C1550   1.494       .  S
C1147      C1567   1.495       .  S
N1148      N1149   1.319       .  A
N1148      N1154   1.318       .  A
N1148     Mn2956   2.196   1_455  S
N1149      C1157   1.351       .  A
N1150      N1152   1.317       .  A
N1150      N1151   1.322       .  A
N1150     Mn1168   2.218       .  S
N1151      C1158   1.357       .  A
N1152      N1153   1.319       .  A
N1152     Mn1156   2.198       .  S
N1153      C1158   1.351       .  A
N1154      N1155   1.323       .  A
N1154     Mn2968   2.221   1_455  S
N1155      C1157   1.356       .  A
Mn1156     N2948   2.193       .  S
Mn1156    Cl1169   2.545       .  S
C1157      C1424   1.478       .  S
C1158      C1455   1.481       .  S
N1159      N1160   1.321       .  A
N1159      N1165   1.319       .  A
N1159     Mn1167   2.213       .  S
N1160      C1170   1.354       .  A
N1161      N1162   1.322       .  A
N1161      N1163   1.317       .  A
N1161     Mn2968   2.217   1_455  S
N1162      C1171   1.356       .  A
N1163      N1164   1.317       .  A
N1163     Mn2967   2.191   1_455  S
N1164      C1171   1.350       .  A
N1165      N1166   1.324       .  A
N1165     Mn1168   2.228       .  S
N1166      C1170   1.357       .  A
Mn1167     N2963   2.199       .  S
Mn1167    Cl1169   2.548       .  S
Mn1168     N2954   2.224       .  S
Mn1168     N2961   2.210       .  S
Mn1168    Cl1169   2.551       .  S
C1170      C1441   1.489       .  S
C1171      C1410   1.470       .  S
N1172      H1204   1.040       .  S
N1172      C1177   1.354       .  A
N1172      C1176   1.352       .  A
N1173      C1180   1.350       .  A
N1173      C1181   1.351       .  A
N1174      H1205   1.040       .  S
N1174      C1179   1.352       .  A
N1174      C1178   1.354       .  A
N1175      C1182   1.350       .  A
N1175      C1183   1.349       .  A
C1176      C1184   1.387       .  A
C1176      C1192   1.415       .  A
C1177      C1193   1.415       .  A
C1177      C1185   1.386       .  A
C1178      C1186   1.386       .  A
C1178      C1195   1.415       .  A
C1179      C1194   1.415       .  A
C1179      C1187   1.387       .  A
C1180      C1192   1.411       .  A
C1180      C1188   1.386       .  A
C1181      C1195   1.412       .  A
C1181      C1189   1.386       .  A
C1182      C1190   1.386       .  A
C1182      C1193   1.411       .  A
C1183      C1191   1.387       .  A
C1183      C1194   1.410       .  A
C1184      C1185   1.378       .  A
C1184      H1196   1.082       .  S
C1185      H1197   1.082       .  S
C1186      C1187   1.378       .  A
C1186      H1198   1.082       .  S
C1187      H1199   1.082       .  S
C1188      C1189   1.372       .  A
C1188      H1200   1.082       .  S
C1189      H1201   1.082       .  S
C1190      C1191   1.373       .  A
C1192      C1595   1.488       .  S
C1193      C1581   1.489       .  S
C1194      C1413   1.482       .  S
C1195      C1427   1.493       .  S
N1206      H1238   1.039       .  S
N1206      C1211   1.354       .  A
N1206      C1210   1.355       .  A
N1207      C1214   1.352       .  A
N1207      C1215   1.352       .  A
N1208      H1239   1.037       .  S
N1208      C1213   1.353       .  A
N1208      C1212   1.353       .  A
N1209      C1216   1.352       .  A
N1209      C1217   1.353       .  A
C1210      C1218   1.387       .  A
C1210      C1226   1.417       .  A
C1211      C1227   1.416       .  A
C1211      C1219   1.386       .  A
C1212      C1220   1.389       .  A
C1212      C1229   1.418       .  A
C1213      C1228   1.413       .  A
C1213      C1221   1.385       .  A
C1214      C1226   1.413       .  A
C1214      C1222   1.385       .  A
C1215      C1229   1.417       .  A
C1215      C1223   1.387       .  A
C1216      C1224   1.387       .  A
C1216      C1227   1.416       .  A
C1217      C1225   1.385       .  A
C1217      C1228   1.413       .  A
C1218      C1219   1.375       .  A
C1220      C1221   1.372       .  A
C1220      H1232   1.081       .  S
C1221      H1233   1.082       .  S
C1222      C1223   1.375       .  A
C1222      H1234   1.082       .  S
C1223      H1235   1.082       .  S
C1224      C1225   1.375       .  A
C1224      H1236   1.082       .  S
C1225      H1237   1.082       .  S
C1226      C1606   1.490       .  S
C1227      C1438   1.493       .  S
C1228      C1452   1.490       .  S
C1229      C1623   1.488       .  S
N1240      H1272   1.037       .  S
N1240      C1245   1.354       .  A
N1240      C1244   1.354       .  A
N1241      C1248   1.352       .  A
N1241      C1249   1.352       .  A
N1242      H1273   1.039       .  S
N1242      C1247   1.354       .  A
N1242      C1246   1.354       .  A
N1243      C1250   1.352       .  A
N1243      C1251   1.352       .  A
C1244      C1252   1.387       .  A
C1244      C1260   1.418       .  A
C1245      C1261   1.418       .  A
C1245      C1253   1.387       .  A
C1246      C1254   1.387       .  A
C1246      C1263   1.415       .  A
C1247      C1262   1.417       .  A
C1247      C1255   1.387       .  A
C1248      C1260   1.415       .  A
C1248      C1256   1.387       .  A
C1249      C1263   1.413       .  A
C1249      C1257   1.386       .  A
C1250      C1258   1.386       .  A
C1250      C1261   1.415       .  A
C1251      C1259   1.386       .  A
C1251      C1262   1.414       .  A
C1252      C1253   1.379       .  A
C1252      H1264   1.082       .  S
C1253      H1265   1.082       .  S
C1254      C1255   1.377       .  A
C1254      H1266   1.082       .  S
C1255      H1267   1.082       .  S
C1256      C1257   1.371       .  A
C1258      C1259   1.372       .  A
C1258      H1270   1.082       .  S
C1259      H1271   1.082       .  S
C1260      C1385   1.491       .  S
C1261      C1396   1.491       .  S
C1262      C1651   1.491       .  S
C1263      C1637   1.487       .  S
N1274      H1306   1.038       .  S
N1274      C1279   1.354       .  A
N1274      C1278   1.353       .  A
N1275      C1282   1.352       .  A
N1275      C1283   1.352       .  A
N1276      H1307   1.039       .  S
N1276      C1281   1.353       .  A
N1276      C1280   1.353       .  A
N1277      C1284   1.350       .  A
N1277      C1285   1.351       .  A
C1278      C1286   1.387       .  A
C1278      C1294   1.416       .  A
C1279      C1295   1.416       .  A
C1279      C1287   1.387       .  A
C1280      C1288   1.387       .  A
C1280      C1297   1.414       .  A
C1281      C1296   1.414       .  A
C1281      C1289   1.386       .  A
C1282      C1294   1.416       .  A
C1282      C1290   1.387       .  A
C1283      C1297   1.415       .  A
C1283      C1291   1.386       .  A
C1284      C1292   1.387       .  A
C1284      C1295   1.413       .  A
C1285      C1293   1.385       .  A
C1285      C1296   1.412       .  A
C1286      C1287   1.376       .  A
C1288      C1289   1.376       .  A
C1288      H1300   1.082       .  S
C1289      H1301   1.082       .  S
C1290      C1291   1.375       .  A
C1290      H1302   1.082       .  S
C1291      H1303   1.082       .  S
C1292      C1293   1.375       .  A
C1292      H1304   1.082       .  S
C1293      H1305   1.082       .  S
C1294      C1665   1.491       .  S
C1295      C1357   1.490       .  S
C1296      C1368   1.492       .  S
C1297      C1676   1.490       .  S
N1308      N1309   1.326       .  A
N1308      N1314   1.314       .  A
N1308     Mn1337   2.225       .  S
N1309      C1316   1.360       .  A
N1310      N1312   1.314       .  A
N1310      N3111   1.320       .  A
N1310     Mn1326   2.201       .  S
N1311      C1317   1.352       .  A
N1311      N3110   1.319       .  A
N1312      N3113   1.324       .  A
N1312     Mn1337   2.206       .  S
N1313      C1317   1.353       .  A
N1313      N3112   1.324       .  A
N1314      N1315   1.315       .  A
N1314     Mn1326   2.181       .  S
N1315      C1316   1.348       .  A
C1316      C1483   1.486       .  S
C1317      C1469   1.476       .  S
N1318      N1324   1.315       .  A
N1318      N3119   1.325       .  A
N1318     Mn1348   2.218       .  S
N1319      C1327   1.356       .  A
N1319      N3118   1.325       .  A
N1320      N1321   1.319       .  A
N1320      N1322   1.314       .  A
N1320     Mn1326   2.200       .  S
N1321      C1328   1.351       .  A
N1322      N1323   1.324       .  A
N1322     Mn1348   2.202       .  S
N1323      C1328   1.353       .  A
N1324      N3125   1.317       .  A
N1324     Mn1326   2.188       .  S
N1325      C1327   1.351       .  A
N1325      N3124   1.318       .  A
Mn1326    Cl1350   2.539       .  S
C1327      C1522   1.479       .  S
C1328      C1536   1.472       .  S
N1329      N1330   1.320       .  A
N1329      N1335   1.318       .  A
N1329     Mn3137   2.208   1_455  S
N1330      C1338   1.352       .  A
N1331      N1333   1.318       .  A
N1331      N1332   1.321       .  A
N1331     Mn1349   2.216       .  S
N1332      C1339   1.354       .  A
N1333      N1334   1.322       .  A
N1333     Mn1337   2.201       .  S
N1334      C1339   1.352       .  A
N1335      N1336   1.323       .  A
N1335     Mn3149   2.220   1_455  S
N1336      C1338   1.356       .  A
Mn1337     N3129   2.202       .  S
Mn1337    Cl1350   2.553       .  S
C1338      C1399   1.477       .  S
C1339      C1371   1.487       .  S
N1340      N1341   1.322       .  A
N1340      N1346   1.317       .  A
N1340     Mn1348   2.209       .  S
N1341      C1351   1.354       .  A
N1342      N1343   1.323       .  A
N1342      N1344   1.317       .  A
N1342     Mn3149   2.226   1_455  S
N1343      C1352   1.357       .  A
N1344      N1345   1.318       .  A
N1344     Mn3148   2.187   1_455  S
N1345      C1352   1.349       .  A
N1346      N1347   1.319       .  A
N1346     Mn1349   2.211       .  S
N1347      C1351   1.354       .  A
Mn1348     N3144   2.188       .  S
Mn1348    Cl1350   2.555       .  S
Mn1349     N3135   2.214       .  S
Mn1349     N3142   2.225       .  S
Mn1349    Cl1350   2.540       .  S
C1351      C1354   1.485       .  S
C1352      C1382   1.474       .  S
C1353      C1354   1.405   1_545  A
C1353      H1360   1.084       .  S
C1354      C1355   1.416       .  A
C1355      N1362   1.438       .  S
C1356      C1357   1.400       .  A
C1356      H1361   1.084       .  S
C1357      C1358   1.412       .  A
C1358      N1359   1.438       .  S
N1359      H1363   1.045       .  S
N1359      H1364   1.044       .  S
N1362      H1365   1.045       .  S
C1367      C1368   1.403       .  A
C1367      C1372   1.407       .  A
C1367      H1374   1.084       .  S
C1368      C1369   1.417       .  A
C1369      C1370   1.403       .  A
C1369      N1376   1.438       .  S
C1370      C1371   1.404       .  A
C1370      H1375   1.084       .  S
C1371      C1372   1.416       .  A
C1372      N1373   1.438       .  S
N1373      H1377   1.046       .  S
N1373      H1378   1.045       .  S
N1376      H1379   1.043       .  S
N1376      H1380   1.045       .  S
C1381      C1382   1.400       .  A
C1381      H1388   1.084       .  S
C1382      C1383   1.412   1_565  A
C1383      N1390   1.439   1_545  S
C1384      C1385   1.402       .  A
C1384      H1389   1.084       .  S
C1385      C1386   1.419       .  A
C1386      N1387   1.438       .  S
N1387      H1391   1.045       .  S
N1387      H1392   1.043       .  S
N1390      H3193   1.045   1_565  S
N1390      H3194   1.046   1_465  S
H1393      N3190   1.045   1_545  S
H1394      N3190   1.046   1_545  S
C1395      C1396   1.405       .  A
C1395      C1400   1.406       .  A
C1395      H1402   1.084       .  S
C1396      C1397   1.416       .  A
C1397      C1398   1.402       .  A
C1397      N1404   1.439       .  S
C1398      C1399   1.403       .  A
C1398      H1403   1.085       .  S
C1399      C1400   1.415       .  A
C1400      N1401   1.438       .  S
N1401      H1405   1.045       .  S
N1401      H1406   1.044       .  S
N1404      H1407   1.043       .  S
N1404      H3208   1.046       .  S
H1408      N3204   1.046       .  S
C1409      C1410   1.400       .  A
C1409      H1416   1.084       .  S
C1410      C1411   1.412       .  A
C1411      N3218   1.440       .  S
C1412      C1413   1.400       .  A
C1412      H1417   1.084       .  S
C1413      C1414   1.418       .  A
C1414      N1415   1.438       .  S
N1415      H1419   1.045       .  S
N1415      H1420   1.043       .  S
N1418      C3211   1.439       .  S
N1418      H1421   1.046       .  S
N1418      H1422   1.046       .  S
C1423      C1424   1.401       .  A
C1423      C1428   1.408       .  A
C1423      H1430   1.084       .  S
C1424      C1425   1.414       .  A
C1425      C1426   1.405       .  A
C1425      N1432   1.439       .  S
C1426      C1427   1.402       .  A
C1426      H1431   1.084       .  S
C1427      C1428   1.413       .  A
C1428      N1429   1.437       .  S
N1429      H1433   1.046       .  S
N1429      H1434   1.045       .  S
N1432      H3235   1.046   1_455  S
N1432      H3236   1.046   1_455  S
H1435      N3232   1.046       .  S
H1436      N3232   1.046       .  S
C1437      C1438   1.404       .  A
C1437      C1442   1.407       .  A
C1437      H1444   1.084       .  S
C1438      C1439   1.412       .  A
C1439      N1446   1.438       .  S
C1440      C1441   1.405       .  A
C1440      H1445   1.083       .  S
C1442      N1443   1.438       .  S
N1443      H1447   1.046       .  S
N1446      H1449   1.046       .  S
C1451      C1452   1.403       .  A
C1451      C1456   1.408       .  A
C1451      H1458   1.084       .  S
C1452      C1453   1.411       .  A
C1453      C1454   1.405       .  A
C1453      N1460   1.439       .  S
C1454      C1455   1.404       .  A
C1454      H1459   1.084       .  S
C1455      C1456   1.413       .  A
C1456      N1457   1.438       .  S
N1457      H1461   1.046       .  S
N1457      H1462   1.045       .  S
N1460      H1463   1.044       .  S
N1460      H1464   1.046       .  S
C1465      C1466   1.406       .  A
C1465      C1470   1.404       .  A
C1465      H1472   1.084       .  S
C1466      C1467   1.406       .  A
C1467      C1468   1.403       .  A
C1467      N1474   1.433       .  S
C1468      C1469   1.401       .  A
C1468      H1473   1.079       .  S
C1469      C1470   1.415       .  A
C1470      N1471   1.438       .  S
N1471      H1475   1.046       .  S
N1471      H1476   1.043       .  S
N1474      H1477   1.043       .  S
N1474      H1478   1.045       .  S
C1479      C1480   1.398       .  A
C1479      C1484   1.396       .  A
C1479      H1486   1.085       .  S
C1480      C1481   1.417       .  A
C1481      C1482   1.406       .  A
C1481      N1488   1.438       .  S
C1482      C1483   1.406       .  A
C1482      H1487   1.083       .  S
C1483      C1484   1.416       .  A
C1484      N1485   1.432       .  S
N1485      H1489   1.044       .  S
N1485      H1490   1.046       .  S
N1488      H1491   1.043       .  S
N1488      H1492   1.046       .  S
C1493      C1494   1.402       .  A
C1493      C1498   1.395       .  A
C1493      H1500   1.084       .  S
C1494      C1495   1.413       .  A
C1495      C1496   1.413       .  A
C1495      N1502   1.437       .  S
C1496      C1497   1.407       .  A
C1496      H1501   1.083       .  S
C1497      C1498   1.410       .  A
C1498      N1499   1.433       .  S
N1499      H1503   1.046       .  S
N1499      H1504   1.045       .  S
N1502      H1505   1.045       .  S
N1502      H1506   1.046       .  S
C1507      C1508   1.399       .  A
C1507      C1512   1.399       .  A
C1507      H1514   1.084       .  S
C1508      C1509   1.416       .  A
C1509      C1510   1.403       .  A
C1509      N1516   1.438       .  S
C1510      C1511   1.405       .  A
C1510      H1515   1.084       .  S
C1511      C1512   1.412       .  A
C1512      N1513   1.432       .  S
N1513      H1517   1.046       .  S
N1513      H1518   1.046       .  S
N1516      H1519   1.044       .  S
N1516      H1520   1.046       .  S
C1521      C1522   1.402       .  A
C1521      C1526   1.412       .  A
C1521      H1528   1.083   1_565  S
C1522      C1523   1.405       .  A
C1523      C1524   1.400       .  A
C1523      N1530   1.426       .  S
C1524      C1525   1.399       .  A
C1524      H1529   1.084       .  S
C1525      C1526   1.415       .  A
C1526      N1527   1.437   1_565  S
N1527      H1531   1.046       .  S
N1527      H1532   1.045       .  S
N1530      H1533   1.045       .  S
N1530      H1534   1.046       .  S
C1535      C1536   1.399       .  A
C1535      C1540   1.403       .  A
C1535      H1542   1.084   1_565  S
C1536      C1537   1.410       .  A
C1537      C1538   1.409       .  A
C1537      N1544   1.439       .  S
C1538      C1539   1.405       .  A
C1538      H1543   1.083       .  S
C1539      C1540   1.412       .  A
C1540      N1541   1.433   1_565  S
N1541      H1545   1.046       .  S
N1541      H1546   1.045       .  S
N1544      H1547   1.044       .  S
N1544      H1548   1.046       .  S
C1549      C1550   1.407       .  A
C1549      C1554   1.410       .  A
C1550      C1551   1.415       .  A
C1551      C1552   1.401       .  A
C1551      N1558   1.432       .  S
C1552      C1553   1.399       .  A
C1552      H1557   1.084       .  S
C1553      C1554   1.417       .  A
N1555      H1559   1.045       .  S
N1555      H1560   1.043       .  S
N1558      H1561   1.046       .  S
N1558      H1562   1.045       .  S
C1563      C1564   1.405       .  A
C1563      C1568   1.416       .  A
C1563      H1570   1.083       .  S
C1564      C1565   1.414       .  A
C1565      C1566   1.395       .  A
C1565      N1572   1.440       .  S
C1566      C1567   1.406       .  A
C1566      H1571   1.083       .  S
C1567      C1568   1.417       .  A
C1568      N1569   1.437       .  S
N1569      H1573   1.046       .  S
N1569      H1574   1.045       .  S
N1572      H1575   1.043       .  S
N1572      H1576   1.046       .  S
C1577      C1578   1.405       .  A
C1577      H1584   1.084       .  S
C1578      C1579   1.417       .  A
C1579      N1586   1.439       .  S
C1580      C1581   1.402       .  A
C1580      H1585   1.084       .  S
C1581      C1582   1.417       .  A
C1582      N1583   1.440       .  S
N1583      H1587   1.045       .  S
N1583      H1588   1.043       .  S
N1586      H1589   1.043       .  S
N1586      H1590   1.046       .  S
C1591      C1592   1.404       .  A
C1591      C1596   1.402       .  A
C1591      H1598   1.084       .  S
C1592      C1593   1.412       .  A
C1593      C1594   1.402       .  A
C1593      N1600   1.438       .  S
C1594      C1595   1.403       .  A
C1594      H1599   1.084       .  S
C1595      C1596   1.416       .  A
C1596      N1597   1.438       .  S
N1597      H1601   1.045       .  S
N1597      H1602   1.043       .  S
N1600      H1603   1.045       .  S
N1600      H1604   1.045       .  S
C1605      C1606   1.402       .  A
C1605      H1612   1.084       .  S
C1606      C1607   1.411       .  A
C1607      N1614   1.437       .  S
C1608      C1609   1.401       .  A
C1608      H1613   1.084       .  S
C1609      C1610   1.413       .  A
C1610      N1611   1.438       .  S
N1611      H1615   1.046       .  S
N1611      H1616   1.045       .  S
N1614      H1617   1.046       .  S
N1614      H1618   1.046       .  S
C1619      C1620   1.402       .  A
C1619      C1624   1.407       .  A
C1619      H1626   1.084       .  S
C1620      C1621   1.408       .  A
C1621      C1622   1.401       .  A
C1621      N1628   1.433       .  S
C1622      C1623   1.403       .  A
C1622      H1627   1.084       .  S
C1623      C1624   1.411       .  A
C1624      N1625   1.437       .  S
N1625      H1629   1.046       .  S
N1625      H1630   1.046       .  S
N1628      H1631   1.046       .  S
N1628      H1632   1.045       .  S
C1633      C1638   1.405       .  A
C1633      H1640   1.084       .  S
C1634      C1635   1.417       .  A
C1635      C1636   1.402   1_565  A
C1635      N1642   1.439       .  S
C1636      H1641   1.084       .  S
C1637      C1638   1.408       .  A
C1638      N1639   1.438       .  S
N1639      H1643   1.046       .  S
N1639      H1644   1.045       .  S
N1642      H1645   1.043       .  S
N1642      H1646   1.046       .  S
C1647      C1648   1.403       .  A
C1647      C1652   1.400       .  A
C1647      H1654   1.084       .  S
C1648      C1649   1.414       .  A
C1649      C1650   1.402       .  A
C1649      N1656   1.433       .  S
C1650      C1651   1.404       .  A
C1650      H1655   1.084       .  S
C1651      C1652   1.417       .  A
C1652      N1653   1.438       .  S
N1653      H1657   1.045       .  S
N1653      H1658   1.043       .  S
N1656      H1659   1.046       .  S
N1656      H1660   1.045       .  S
C1661      C1662   1.405   1_545  A
C1661      H1668   1.084       .  S
C1662      C1663   1.407       .  A
C1663      N1670   1.437       .  S
C1664      C1665   1.406       .  A
C1664      H1669   1.084       .  S
C1665      C1666   1.410       .  A
C1666      N1667   1.438       .  S
N1667      H1671   1.046       .  S
N1667      H1672   1.046       .  S
N1670      H1673   1.046       .  S
N1670      H1674   1.046       .  S
C1675      C1676   1.401       .  A
C1675      C1680   1.404       .  A
C1675      H1682   1.084       .  S
C1676      C1677   1.412       .  A
C1677      C1678   1.410       .  A
C1677      N1684   1.437       .  S
C1678      C1679   1.402       .  A
C1678      H1683   1.084       .  S
C1679      C1680   1.412       .  A
C1680      N1681   1.439       .  S
N1681      H1685   1.046       .  S
N1681      H1686   1.046       .  S
N1684      H1687   1.046       .  S
N1684      H1688   1.046       .  S
C1689      C1690   1.404       .  A
C1689      C1694   1.405       .  A
C1689      H1696   1.084       .  S
C1690      C1691   1.412       .  A
C1691      C1692   1.403       .  A
C1691      N1698   1.433       .  S
C1692      C1693   1.399       .  A
C1692      H1697   1.084       .  S
C1693      C1694   1.417       .  A
C1694      N1695   1.438       .  S
N1695      H1699   1.046       .  S
N1695      H1700   1.044       .  S
N1698      H1701   1.045       .  S
N1698      H1702   1.046       .  S
C1703      C1704   1.405       .  A
C1703      C1708   1.412       .  A
C1703      H1710   1.083       .  S
C1704      C1705   1.412       .  A
C1705      C1706   1.396       .  A
C1705      N1712   1.437       .  S
C1706      C1707   1.401       .  A
C1706      H1711   1.082       .  S
C1707      C1708   1.413       .  A
C1708      N1709   1.437       .  S
N1709      H1713   1.045       .  S
N1709      H1714   1.045       .  S
N1712      H1715   1.043       .  S
N1712      H1716   1.046       .  S
C1717      C1718   1.396       .  A
C1717      C1722   1.398       .  A
C1717      H1724   1.084       .  S
C1718      C1719   1.409       .  A
C1719      C1720   1.412       .  A
C1719      N1726   1.437       .  S
C1720      C1721   1.407       .  A
C1720      H1725   1.083       .  S
C1721      C1722   1.419       .  A
C1722      N1723   1.439       .  S
N1723      H1727   1.046       .  S
N1723      H1728   1.046       .  S
N1726      H1729   1.045       .  S
N1726      H1730   1.046       .  S
C1731      C1732   1.400       .  A
C1731      C1736   1.403       .  A
C1731      H1738   1.084       .  S
C1732      C1733   1.418       .  A
C1733      C1734   1.406       .  A
C1733      N1740   1.438       .  S
C1734      C1735   1.404       .  A
C1734      H1739   1.084       .  S
C1735      C1736   1.414       .  A
C1736      N1737   1.438       .  S
N1737      H1741   1.046       .  S
N1737      H1742   1.046       .  S
N1740      H1743   1.044       .  S
N1740      H1744   1.045       .  S
C1745      C1746   1.398       .  A
C1745      C1750   1.395       .  A
C1745      H1752   1.084       .  S
C1746      C1747   1.409       .  A
C1747      C1748   1.409       .  A
C1748      C1749   1.406       .  A
C1749      C1750   1.421       .  A
C1750      N1751   1.431       .  S
N1751      H1755   1.044       .  S
N1751      H1756   1.043       .  S
N1754      H1757   1.045       .  S
N1754      H1758   1.045       .  S
C1759      C1760   1.406       .  A
C1759      C1764   1.410       .  A
C1760      C1761   1.413       .  A
C1761      C1762   1.396       .  A
C1761      N1768   1.437       .  S
C1762      C1763   1.401       .  A
C1762      H1767   1.082       .  S
C1763      C1764   1.410       .  A
N1765      H1769   1.046       .  S
N1768      H1771   1.042       .  S
N1768      H1772   1.046       .  S
C1773      C1774   1.402       .  A
C1773      C1778   1.402       .  A
C1773      H1780   1.084       .  S
C1774      C1775   1.418       .  A
C1775      C1776   1.411       .  A
C1775      N1782   1.438   1_565  S
C1776      C1777   1.409       .  A
C1776      H1781   1.084       .  S
C1777      C1778   1.416       .  A
C1778      N1779   1.438       .  S
N1779      H1783   1.046       .  S
N1779      H1784   1.046       .  S
N1782      H1785   1.043       .  S
N1782      H1786   1.046       .  S
C1787      C1788   1.407       .  A
C1787      C1792   1.407       .  A
C1787      H1794   1.084       .  S
C1788      C1789   1.418       .  A
C1789      C1790   1.399       .  A
C1789      N1796   1.439       .  S
C1790      C1791   1.399       .  A
C1790      H1795   1.084       .  S
C1791      C1792   1.417       .  A
C1792      N1793   1.438   1_565  S
N1793      H1797   1.045       .  S
N1793      H1798   1.043       .  S
N1796      H1799   1.046       .  S
N1796      H1800   1.046       .  S
N1801      H1833   1.038       .  S
N1801      C2706   1.353       .  A
N1801      C1805   1.352       .  A
N1802      C1810   1.352       .  A
N1803      H1834   1.037       .  S
N1803      C1808   1.354       .  A
N1803      C2707   1.352       .  A
N1804      C1812   1.349       .  A
C1805      C1813   1.387       .  A
C1805      C1821   1.413       .  A
C1806      N2701   1.354       .  A
C1806      C1822   1.417       .  A
C1806      C1814   1.388       .  A
C1807      N2703   1.353       .  A
C1807      C1815   1.385       .  A
C1807      C1824   1.414       .  A
C1808      C1823   1.418       .  A
C1808      C1816   1.389       .  A
C1809      C1821   1.414       .  A
C1809      C1817   1.385       .  A
C1810      C1824   1.413       .  A
C1810      C1818   1.385       .  A
C1811      C1819   1.386       .  A
C1811      C1822   1.413       .  A
C1812      C1820   1.386       .  A
C1812      C1823   1.412       .  A
C1813      C2714   1.373       .  A
C1813      H1825   1.083       .  S
C1814      C2713   1.373       .  A
C1814      H1826   1.082       .  S
C1815      C2716   1.372       .  A
C1815      H1827   1.083       .  S
C1816      C2715   1.373       .  A
C1816      H1828   1.082       .  S
C1817      H1829   1.082       .  S
C1818      H1830   1.082       .  S
C1819      H1831   1.082       .  S
C1820      H1832   1.082       .  S
C1821      C2691   1.490       .  S
C1822      C2660   1.490       .  S
C1823      C2646   1.484       .  S
C1824      C2674   1.493       .  S
N1835      H1867   1.038       .  S
N1835      C1840   1.353       .  A
N1835      C1839   1.354       .  A
N1836      C1844   1.350       .  A
N1837      H1868   1.038       .  S
N1837      C1842   1.354       .  A
N1837      C1841   1.355       .  A
N1838      C1846   1.351       .  A
C1839      C1847   1.386       .  A
C1839      C1855   1.414       .  A
C1840      C1856   1.419       .  A
C1840      C1848   1.388       .  A
C1841      C1849   1.386       .  A
C1841      C1858   1.415       .  A
C1842      C1857   1.418       .  A
C1842      C1850   1.388       .  A
C1843      C1855   1.411       .  A
C1843      C1851   1.386       .  A
C1844      C1858   1.410       .  A
C1844      C1852   1.386       .  A
C1845      C1853   1.387       .  A
C1845      C1856   1.416       .  A
C1846      C1854   1.385       .  A
C1846      C1857   1.413       .  A
C1847      C1848   1.372       .  A
C1847      H1859   1.081       .  S
C1848      H1860   1.082       .  S
C1849      C1850   1.373       .  A
C1849      H1861   1.081       .  S
C1850      H1862   1.082       .  S
C1851      H1863   1.082       .  S
C1852      H1864   1.082       .  S
C1853      H1865   1.082       .  S
C1854      H1866   1.082       .  S
C1855      C2618   1.483       .  S
C1856      C2590   1.495       .  S
C1857      C2604   1.489       .  S
C1858      C2632   1.487       .  S
N1869      N1870   1.325       .  A
N1869      N1875   1.314       .  A
N1869     Mn1898   2.216       .  S
N1870      C1877   1.357       .  A
N1871      N1873   1.313       .  A
N1871      N1872   1.313       .  A
N1871     Mn1887   2.170       .  S
N1872      C1878   1.347       .  A
N1873      N1874   1.326       .  A
N1873     Mn1898   2.216       .  S
N1874      C1878   1.359       .  A
N1875      N1876   1.316       .  A
N1875     Mn1887   2.182       .  S
N1876      C1877   1.349       .  A
C1877      C2635   1.481       .  S
C1878      C2621   1.481       .  S
N1879      N1885   1.313       .  A
N1879      N1880   1.326       .  A
N1879     Mn1909   2.220       .  S
N1880      C1888   1.359       .  A
N1881      N1882   1.314       .  A
N1881      N1883   1.312       .  A
N1881     Mn1887   2.174       .  S
N1882      C1889   1.348       .  A
N1883      N1884   1.326       .  A
N1883     Mn1909   2.218       .  S
N1884      C1889   1.360       .  A
N1885      N1886   1.317       .  A
N1885     Mn1887   2.190       .  S
N1886      C1888   1.351       .  A
Mn1887    Cl1911   2.542       .  S
C1888      C2677   1.492       .  S
C1889      C2688   1.489       .  S
N1890      N1891   1.319       .  A
N1890      N1896   1.318       .  A
N1890     Mn1898   2.196       .  S
N1891      C1899   1.351       .  A
N1892      N1894   1.317       .  A
N1892      N1893   1.323       .  A
N1892     Mn1910   2.215       .  S
N1893      C1900   1.355       .  A
N1894      N1895   1.318       .  A
N1894     Mn1898   2.202       .  S
N1895      C1900   1.352       .  A
N1896      N1897   1.322       .  A
N1896     Mn1910   2.226       .  S
N1897      C1899   1.357       .  A
Mn1898    Cl1911   2.550       .  S
C1899      C2548   1.480       .  S
C1900      C2579   1.476       .  S
N1901      N1902   1.318       .  A
N1901      N1907   1.318       .  A
N1901     Mn1909   2.199       .  S
N1902      C1912   1.351       .  A
N1903      N1904   1.322       .  A
N1903      N1905   1.318       .  A
N1903     Mn1910   2.220       .  S
N1904      C1913   1.356       .  A
N1905      N1906   1.319       .  A
N1905     Mn1909   2.197       .  S
N1906      C1913   1.350       .  A
N1907      N1908   1.323       .  A
N1907     Mn1910   2.219       .  S
N1908      C1912   1.356       .  A
Mn1909    Cl1911   2.549       .  S
Mn1910    Cl1911   2.544       .  S
C1912      C2562   1.475       .  S
C1913      C2534   1.478       .  S
N1914      N1915   1.326       .  A
N1914      N1920   1.313       .  A
N1914     Mn1943   2.215       .  S
N1915      C1922   1.357       .  A
N1916      N1918   1.313       .  A
N1916      N1917   1.319       .  A
N1916     Mn1932   2.196       .  S
N1917      C1923   1.350       .  A
N1918      N1919   1.324       .  A
N1918     Mn1943   2.202       .  S
N1919      C1923   1.353       .  A
N1920      N1921   1.318       .  A
N1920     Mn1932   2.193       .  S
N1921      C1922   1.351       .  A
C1922      C2607   1.481       .  S
C1923      C2593   1.472       .  S
N1924      N1930   1.314       .  A
N1924      N1925   1.325       .  A
N1924     Mn1954   2.223       .  S
N1925      C1933   1.359       .  A
N1926      N1927   1.316       .  A
N1926      N1928   1.315       .  A
N1926     Mn1932   2.182       .  S
N1927      C1934   1.349       .  A
N1928      N1929   1.325       .  A
N1928     Mn1954   2.216       .  S
N1929      C1934   1.356       .  A
N1930      N1931   1.315       .  A
N1930     Mn1932   2.178       .  S
N1931      C1933   1.347       .  A
Mn1932    Cl1956   2.537       .  S
C1933      C2649   1.486       .  S
C1934      C2663   1.476       .  S
N1935      N1936   1.318       .  A
N1935      N1941   1.316       .  A
N1935     Mn1943   2.195       .  S
N1936      C1944   1.351       .  A
N1937      N1939   1.317       .  A
N1937      N1938   1.323       .  A
N1937     Mn1955   2.220       .  S
N1938      C1945   1.357       .  A
N1939      N1940   1.316       .  A
N1939     Mn1943   2.186       .  S
N1940      C1945   1.348       .  A
N1941      N1942   1.321       .  A
N1941     Mn1955   2.212       .  S
N1942      C1944   1.356       .  A
Mn1943    Cl1956   2.547       .  S
C1944      C2492   1.477       .  S
C1945      C2520   1.470       .  S
N1946      N1947   1.321       .  A
N1946      N1952   1.318       .  A
N1946     Mn1954   2.210       .  S
N1947      C1957   1.353       .  A
N1948      N1949   1.321       .  A
N1948      N1950   1.317       .  A
N1948     Mn1955   2.215       .  S
N1949      C1958   1.355       .  A
N1950      N1951   1.321       .  A
N1950     Mn1954   2.204       .  S
N1951      C1958   1.353       .  A
N1952      N1953   1.322       .  A
N1952     Mn1955   2.222       .  S
N1953      C1957   1.355       .  A
Mn1954    Cl1956   2.553       .  S
Mn1955    Cl1956   2.547       .  S
C1957      C2509   1.479       .  S
C1958      C2478   1.483       .  S
N1959      H1991   1.039   1_565  S
N1959      C2864   1.353   1_556  A
N1959      C1963   1.353       .  A
N1960      C1967   1.352   1_565  A
N1960      C1968   1.351   1_565  A
N1961      H1992   1.040   1_565  S
N1961      C2866   1.354   1_556  A
N1961      C1965   1.353       .  A
N1962      C1969   1.351       .  A
N1962      C1970   1.353       .  A
C1963      C1971   1.385       .  A
C1963      C1979   1.412   1_565  A
C1964      N2859   1.354   1_554  A
C1964      C1980   1.419       .  A
C1964      C1972   1.389       .  A
C1965      C1973   1.386       .  A
C1965      C1982   1.414       .  A
C1966      N2861   1.353   1_554  A
C1966      C1981   1.418       .  A
C1966      C1974   1.388       .  A
C1967      C1979   1.412       .  A
C1967      C1975   1.385       .  A
C1968      C1982   1.413   1_545  A
C1968      C1976   1.386       .  A
C1969      C1977   1.386       .  A
C1969      C1980   1.415       .  A
C1970      C1978   1.386       .  A
C1970      C1981   1.417       .  A
C1971      C2872   1.374   1_556  A
C1971      H1983   1.082       .  S
C1972      C2871   1.375   1_554  A
C1972      H1984   1.082       .  S
C1973      C2874   1.375   1_556  A
C1973      H1985   1.082       .  S
C1974      C2873   1.375   1_554  A
C1974      H1986   1.082       .  S
C1975      C1976   1.378       .  A
C1975      H1987   1.082       .  S
C1976      H1988   1.082       .  S
C1977      C1978   1.379       .  A
C1977      H1989   1.082       .  S
C1978      H1990   1.082       .  S
C1979      C2453   1.491       .  S
C1980      C2425   1.490       .  S
C1981      C2439   1.498       .  S
C1982      C2464   1.488   1_565  S
N1993      H2025   1.040   1_556  S
N1993      C1998   1.351   1_556  A
N1993      C1997   1.352       .  A
N1994      C2001   1.352       .  A
N1994      C2002   1.351       .  A
N1995      H2026   1.036   1_556  S
N1995      C2000   1.356   1_556  A
N1995      C1999   1.354       .  A
N1996      C2003   1.350       .  A
N1996      C2004   1.348       .  A
C1997      C2005   1.387       .  A
C1997      C2013   1.412       .  A
C1998      C2014   1.414       .  A
C1998      C2006   1.388       .  A
C1999      C2007   1.386       .  A
C1999      C2016   1.417       .  A
C2000      C2015   1.423       .  A
C2000      C2008   1.389       .  A
C2001      C2013   1.413       .  A
C2001      C2009   1.385       .  A
C2002      C2016   1.414       .  A
C2002      C2010   1.386       .  A
C2003      C2011   1.385       .  A
C2003      C2014   1.411       .  A
C2004      C2012   1.387       .  A
C2004      C2015   1.412       .  A
C2005      C2006   1.374   1_556  A
C2005      H2017   1.083       .  S
C2006      H2018   1.083       .  S
C2007      C2008   1.371   1_556  A
C2007      H2019   1.082       .  S
C2008      H2020   1.082       .  S
C2009      C2010   1.378       .  A
C2009      H2021   1.082       .  S
C2010      H2022   1.082       .  S
C2011      C2012   1.374       .  A
C2011      H2023   1.082       .  S
C2012      H2024   1.081       .  S
C2013      C2394   1.492       .  S
C2014      C2366   1.488       .  S
C2015      C2380   1.489       .  S
C2016      C2408   1.488       .  S
N2027      N2028   1.325       .  A
N2027      N2033   1.314       .  A
N2027     Mn2056   2.219       .  S
N2028      C2035   1.358       .  A
N2029      N2031   1.313       .  A
N2029     Mn2045   2.181   1_455  S
N2030      C2036   1.350       .  A
N2031     Mn2056   2.218   1_455  S
N2032      C2036   1.358       .  A
N2033      N2034   1.318       .  A
N2033     Mn2045   2.192       .  S
N2034      C2035   1.351       .  A
C2035      C2411   1.489       .  S
C2036      C2397   1.486       .  S
N2037      N2043   1.314       .  A
N2037     Mn2067   2.227   1_455  S
N2038      C2046   1.359       .  A
N2039      N2040   1.314       .  A
N2039      N2041   1.313       .  A
N2039     Mn2045   2.181       .  S
N2040      C2047   1.350       .  A
N2041      N2042   1.328       .  A
N2041     Mn2067   2.222       .  S
N2042      C2047   1.360       .  A
N2043     Mn2045   2.191   1_455  S
N2044      C2046   1.352       .  A
Mn2045    Cl2069   2.542       .  S
C2046      C2450   1.493       .  S
C2047      C2467   1.492       .  S
N2048      N2049   1.320       .  A
N2048      N2054   1.318       .  A
N2049      C2057   1.352       .  A
N2050      N2052   1.318       .  A
N2050      N2051   1.323       .  A
N2050     Mn2068   2.223       .  S
N2051      C2058   1.357       .  A
N2052      N2053   1.319       .  A
N2052     Mn2056   2.200       .  S
N2053      C2058   1.351       .  A
N2054      N2055   1.323       .  A
N2055      C2057   1.355       .  A
Mn2056    Cl2069   2.550       .  S
C2057      C2324   1.480       .  S
C2058      C2355   1.484       .  S
N2059      N2060   1.320       .  A
N2059      N2065   1.319       .  A
N2059     Mn2067   2.208       .  S
N2060      C2070   1.353       .  A
N2061      N2062   1.321       .  A
N2061      N2063   1.317       .  A
N2062      C2071   1.355       .  A
N2063      N2064   1.319       .  A
N2064      C2071   1.353       .  A
N2065      N2066   1.322       .  A
N2065     Mn2068   2.220       .  S
N2066      C2070   1.356       .  A
Mn2067    Cl2069   2.552       .  S
Mn2068    Cl2069   2.548       .  S
C2070      C2341   1.483       .  S
C2071      C2310   1.472       .  S
N2072      H2104   1.040       .  S
N2072      C2077   1.354       .  A
N2072      C2076   1.352       .  A
N2073      C2080   1.349       .  A
N2073      C2081   1.351       .  A
N2074      H2105   1.039       .  S
N2074      C2079   1.352       .  A
N2074      C2078   1.354       .  A
N2075      C2082   1.350       .  A
N2075      C2083   1.350       .  A
C2076      C2084   1.388       .  A
C2076      C2092   1.417       .  A
C2077      C2093   1.415       .  A
C2077      C2085   1.386       .  A
C2078      C2086   1.386       .  A
C2078      C2095   1.415       .  A
C2079      C2094   1.415       .  A
C2079      C2087   1.387       .  A
C2080      C2092   1.411       .  A
C2080      C2088   1.387       .  A
C2081      C2095   1.411       .  A
C2081      C2089   1.385       .  A
C2082      C2090   1.386       .  A
C2082      C2093   1.411       .  A
C2083      C2091   1.387       .  A
C2083      C2094   1.411       .  A
C2084      C2085   1.379       .  A
C2084      H2096   1.082       .  S
C2085      H2097   1.082       .  S
C2086      C2087   1.377       .  A
C2086      H2098   1.082       .  S
C2087      H2099   1.082       .  S
C2088      C2089   1.373       .  A
C2088      H2100   1.082       .  S
C2089      H2101   1.082       .  S
C2090      C2091   1.371       .  A
C2090      H3002   1.082       .  S
C2091      H3003   1.082       .  S
C2092      C2495   1.488       .  S
C2093      C2481   1.489       .  S
C2094      C2313   1.483       .  S
C2095      C2327   1.493       .  S
H2102      C2990   1.082   1_545  S
H2103      C2991   1.082   1_545  S
N2106      H2138   1.039       .  S
N2106      C2111   1.354       .  A
N2106      C2110   1.356       .  A
N2107      C2114   1.353       .  A
N2107      C2115   1.352       .  A
N2108      H2139   1.038       .  S
N2108      C2113   1.354       .  A
N2108      C2112   1.353       .  A
N2109      C2116   1.352       .  A
N2109      C2117   1.354       .  A
C2110      C2118   1.386       .  A
C2110      C2126   1.417       .  A
C2111      C2127   1.418       .  A
C2111      C2119   1.387       .  A
C2112      C2120   1.390       .  A
C2112      C2129   1.417       .  A
C2113      C2128   1.412       .  A
C2113      C2121   1.385       .  A
C2114      C2126   1.416       .  A
C2114      C2122   1.385       .  A
C2115      C2129   1.418       .  A
C2115      C2123   1.387       .  A
C2116      C2124   1.388       .  A
C2116      C2127   1.418       .  A
C2117      C2125   1.384       .  A
C2117      C2128   1.414       .  A
C2118      C2119   1.376       .  A
C2118      H3030   1.082       .  S
C2119      H3031   1.082       .  S
C2120      C2121   1.371       .  A
C2120      H2132   1.081       .  S
C2121      H2133   1.082       .  S
C2122      C2123   1.376       .  A
C2122      H2134   1.082       .  S
C2123      H2135   1.082       .  S
C2124      C2125   1.376       .  A
C2124      H2136   1.082       .  S
C2125      H2137   1.082       .  S
C2126      C2506   1.496       .  S
C2127      C2338   1.496       .  S
C2128      C2352   1.493       .  S
C2129      C2523   1.489       .  S
H2130      C3018   1.082       .  S
H2131      C3019   1.082   1_545  S
N2140      H2172   1.039       .  S
N2140      C2145   1.353       .  A
N2140      C2144   1.354       .  A
N2141      C2148   1.352       .  A
N2141      C2149   1.351       .  A
N2142      H2173   1.038       .  S
N2142      C2147   1.354       .  A
N2142      C2146   1.352       .  A
N2143      C2150   1.352       .  A
N2143      C2151   1.352       .  A
C2144      C2152   1.386       .  A
C2144      C2160   1.416       .  A
C2145      C2161   1.418       .  A
C2145      C2153   1.387       .  A
C2146      C2154   1.387       .  A
C2146      C2163   1.415       .  A
C2147      C2162   1.416       .  A
C2147      C2155   1.387       .  A
C2148      C2160   1.412       .  A
C2148      C2156   1.386       .  A
C2149      C2163   1.413       .  A
C2149      C2157   1.387       .  A
C2150      C2158   1.387       .  A
C2150      C2161   1.414       .  A
C2151      C2159   1.385       .  A
C2151      C2162   1.413       .  A
C2152      C2153   1.378       .  A
C2152      H2164   1.082       .  S
C2153      H2165   1.082       .  S
C2154      C2155   1.378       .  A
C2154      H2166   1.083       .  S
C2155      H2167   1.082       .  S
C2156      C2157   1.372       .  A
C2156      H3068   1.082   1_545  S
C2157      H3069   1.082   1_545  S
C2158      C2159   1.373       .  A
C2158      H2170   1.082       .  S
C2159      H2171   1.082       .  S
C2160      C2285   1.491       .  S
C2161      C2296   1.493       .  S
C2162      C2551   1.491       .  S
C2163      C2537   1.484       .  S
H2168      C3056   1.082       .  S
H2169      C3057   1.082       .  S
N2174      H2206   1.041       .  S
N2174      C2179   1.354       .  A
N2174      C2178   1.353       .  A
N2175      C2182   1.350       .  A
N2175      C2183   1.351       .  A
N2176      H2207   1.041       .  S
N2176      C2181   1.351       .  A
N2176      C2180   1.352       .  A
N2177      C2184   1.348       .  A
N2177      C2185   1.349       .  A
C2178      C2186   1.387       .  A
C2178      C2194   1.416       .  A
C2179      C2195   1.416       .  A
C2179      C2187   1.386       .  A
C2180      C2188   1.386       .  A
C2180      C2197   1.410       .  A
C2181      C2196   1.412       .  A
C2181      C2189   1.387       .  A
C2182      C2194   1.414       .  A
C2182      C2190   1.387       .  A
C2183      C2197   1.412       .  A
C2183      C2191   1.385       .  A
C2184      C2192   1.387       .  A
C2184      C2195   1.411       .  A
C2185      C2193   1.386       .  A
C2185      C2196   1.411       .  A
C2186      C2187   1.379       .  A
C2186      H3098   1.082       .  S
C2187      H3099   1.082       .  S
C2188      C2189   1.376       .  A
C2188      H2200   1.082       .  S
C2189      H2201   1.082       .  S
C2190      C2191   1.377       .  A
C2190      H2202   1.082       .  S
C2191      H2203   1.082       .  S
C2192      C2193   1.378       .  A
C2192      H2204   1.082       .  S
C2193      H2205   1.082       .  S
C2194      C2565   1.493       .  S
C2195      C2257   1.490       .  S
C2196      C2268   1.490       .  S
C2197      C2576   1.490       .  S
H2198      C3086   1.082       .  S
H2199      C3087   1.082       .  S
N2208      N2209   1.326       .  A
N2208      N2214   1.314       .  A
N2208     Mn2237   2.221       .  S
N2209      C2216   1.359       .  A
N2210      N2212   1.315       .  A
N2210     Mn2226   2.197   1_455  S
N2211      C2217   1.352       .  A
N2212     Mn2237   2.207   1_455  S
N2213      C2217   1.353       .  A
N2214      N2215   1.315       .  A
N2214     Mn2226   2.181       .  S
N2215      C2216   1.348       .  A
C2216      C2383   1.486       .  S
C2217      C2369   1.473       .  S
N2218      N2224   1.314       .  A
N2218     Mn2248   2.218   1_455  S
N2219      C2227   1.356       .  A
N2220      N2221   1.319       .  A
N2220      N2222   1.314       .  A
N2220     Mn2226   2.200       .  S
N2221      C2228   1.351       .  A
N2222      N2223   1.325       .  A
N2222     Mn2248   2.209       .  S
N2223      C2228   1.355       .  A
N2224     Mn2226   2.192   1_455  S
N2225      C2227   1.351       .  A
Mn2226    Cl2250   2.539       .  S
C2227      C2422   1.479       .  S
C2228      C2436   1.475       .  S
N2229      N2230   1.319       .  A
N2229      N2235   1.318       .  A
N2230      C2238   1.352       .  A
N2231      N2233   1.317       .  A
N2231      N2232   1.321       .  A
N2231     Mn2249   2.217       .  S
N2232      C2239   1.354       .  A
N2233      N2234   1.320       .  A
N2233     Mn2237   2.193       .  S
N2234      C2239   1.352       .  A
N2235      N2236   1.322       .  A
N2236      C2238   1.355       .  A
Mn2237    Cl2250   2.552       .  S
C2238      C2299   1.477       .  S
C2239      C2271   1.487       .  S
N2240      N2241   1.322       .  A
N2240      N2246   1.318       .  A
N2240     Mn2248   2.213       .  S
N2241      C2251   1.355       .  A
N2242      N2243   1.322       .  A
N2242      N2244   1.316       .  A
N2243      C2252   1.356       .  A
N2244      N2245   1.318       .  A
N2245      C2252   1.351       .  A
N2246      N2247   1.319       .  A
N2246     Mn2249   2.208       .  S
N2247      C2251   1.352       .  A
Mn2248    Cl2250   2.554       .  S
Mn2249    Cl2250   2.541       .  S
C2251      C2254   1.481       .  S
C2252      C2282   1.472       .  S
C2253      C2254   1.404       .  A
C2253      C3158   1.410       .  A
C2253      H2260   1.084       .  S
C2254      C2255   1.415       .  A
C2255      C3156   1.403       .  A
C2255      N2262   1.438       .  S
C2256      C3155   1.405   1_545  A
C2256      C2257   1.400       .  A
C2256      H2261   1.084       .  S
C2257      C2258   1.412       .  A
C2258      C3153   1.409       .  A
C2258      N2259   1.438       .  S
N2259      H2263   1.045       .  S
N2259      H2264   1.044       .  S
N2262      H2265   1.045       .  S
N2262      H3166   1.046       .  S
H2266      N3162   1.045       .  S
C2267      C2268   1.403       .  A
C2267      C2272   1.405       .  A
C2267      H2274   1.084       .  S
C2268      C2269   1.417       .  A
C2269      C2270   1.402       .  A
C2269      N2276   1.438       .  S
C2270      C2271   1.405       .  A
C2270      H2275   1.084       .  S
C2271      C2272   1.416       .  A
C2272      N2273   1.438       .  S
N2273      H2277   1.046       .  S
N2273      H2278   1.045       .  S
N2276      H2279   1.042       .  S
N2276      H2280   1.046       .  S
C2281      C2282   1.400       .  A
C2281      C3186   1.404       .  A
C2281      H2288   1.084       .  S
C2282      C2283   1.410       .  A
C2283      C3184   1.404       .  A
C2283      N2290   1.438       .  S
C2284      C3183   1.406       .  A
C2284      C2285   1.403       .  A
C2284      H2289   1.084       .  S
C2285      C2286   1.419       .  A
C2286      C3181   1.404   1_545  A
C2286      N2287   1.438       .  S
N2287      H2291   1.045   1_545  S
N2287      H2292   1.043       .  S
C2295      C2296   1.406       .  A
C2295      C2300   1.404       .  A
C2295      H2302   1.084       .  S
C2296      C2297   1.417       .  A
C2297      C2298   1.401       .  A
C2297      N2304   1.439       .  S
C2298      C2299   1.404       .  A
C2298      H2303   1.084       .  S
C2299      C2300   1.414       .  A
C2300      N2301   1.438       .  S
N2301      H2305   1.045       .  S
N2301      H2306   1.043       .  S
N2304      H2307   1.043       .  S
C2309      C2310   1.400       .  A
C2309      C3214   1.404   1_545  A
C2309      H2316   1.084       .  S
C2310      C2311   1.412       .  A
C2311      C3212   1.403   1_545  A
C2312      C3211   1.401       .  A
C2312      C2313   1.401       .  A
C2312      H2317   1.084       .  S
C2313      C2314   1.417       .  A
C2314      C3209   1.403       .  A
C2314      N2315   1.439       .  S
N2315      H2319   1.045       .  S
N2315      H2320   1.043       .  S
N2318      H2321   1.045       .  S
N2318      H2322   1.045   1_455  S
C2323      C2324   1.402       .  A
C2323      C2328   1.409       .  A
C2323      H2330   1.084       .  S
C2324      C2325   1.414       .  A
C2325      C2326   1.406       .  A
C2325      N2332   1.438       .  S
C2326      C2327   1.402       .  A
C2326      H2331   1.084       .  S
C2327      C2328   1.413       .  A
C2328      N2329   1.437       .  S
N2329      H2333   1.046       .  S
N2329      H2334   1.046       .  S
C2337      C2338   1.404       .  A
C2337      C2342   1.408       .  A
C2337      H2344   1.084       .  S
C2338      C2339   1.412       .  A
C2339      C3240   1.406       .  A
C2339      N2346   1.438       .  S
C2340      C3239   1.407   1_545  A
C2340      C2341   1.405       .  A
C2340      H2345   1.083       .  S
C2341      C3242   1.411   1_545  A
C2342      C3241   1.412       .  A
C2342      N2343   1.438       .  S
N2343      H2347   1.046       .  S
N2343      H3248   1.046       .  S
N2346      H2349   1.046       .  S
N2346      H3250   1.045       .  S
H2348      N3243   1.046   1_545  S
H2350      N3246   1.045   1_545  S
C2351      C2352   1.403       .  A
C2351      C2356   1.409       .  A
C2351      H2358   1.084       .  S
C2352      C2353   1.412       .  A
C2353      C2354   1.408       .  A
C2353      N2360   1.438       .  S
C2354      C2355   1.405       .  A
C2354      H2359   1.084       .  S
C2355      C2356   1.413       .  A
C2356      N2357   1.438       .  S
N2357      H2361   1.046       .  S
N2357      H2362   1.045       .  S
N2360      H2363   1.045       .  S
N2360      H2364   1.046       .  S
C2365      C2366   1.405       .  A
C2365      C2370   1.403       .  A
C2365      H2372   1.084       .  S
C2366      C2367   1.404       .  A
C2367      C2368   1.401       .  A
C2367      N2374   1.433       .  S
C2368      C2369   1.401       .  A
C2368      H2373   1.079       .  S
C2369      C2370   1.415       .  A
C2370      N2371   1.438       .  S
N2371      H2375   1.045       .  S
N2371      H2376   1.043       .  S
N2374      H2377   1.043       .  S
N2374      H2378   1.045       .  S
C2379      C2380   1.399       .  A
C2379      C2384   1.396       .  A
C2379      H2386   1.085       .  S
C2380      C2381   1.418       .  A
C2381      C2382   1.406       .  A
C2381      N2388   1.438       .  S
C2382      C2383   1.406       .  A
C2382      H2387   1.083       .  S
C2383      C2384   1.416       .  A
C2384      N2385   1.433       .  S
N2385      H2389   1.045       .  S
N2385      H2390   1.046       .  S
N2388      H2391   1.043       .  S
N2388      H2392   1.046       .  S
C2393      C2394   1.400       .  A
C2393      C2398   1.396       .  A
C2393      H2400   1.084       .  S
C2394      C2395   1.412       .  A
C2395      C2396   1.414       .  A
C2395      N2402   1.437       .  S
C2396      C2397   1.408       .  A
C2396      H2401   1.083       .  S
C2397      C2398   1.412       .  A
C2398      N2399   1.433       .  S
N2399      H2403   1.046       .  S
N2399      H2404   1.044       .  S
N2402      H2405   1.046       .  S
N2402      H2406   1.045       .  S
C2407      C2408   1.398       .  A
C2407      C2412   1.400       .  A
C2407      H2414   1.084       .  S
C2408      C2409   1.418       .  A
C2409      C2410   1.407       .  A
C2409      N2416   1.438       .  S
C2410      C2411   1.406       .  A
C2410      H2415   1.084       .  S
C2411      C2412   1.413       .  A
C2412      N2413   1.431       .  S
N2413      H2417   1.046       .  S
N2413      H2418   1.046       .  S
N2416      H2419   1.044       .  S
N2416      H2420   1.045       .  S
C2421      C2422   1.402       .  A
C2421      C2426   1.413       .  A
C2421      H2428   1.083       .  S
C2422      C2423   1.404       .  A
C2423      C2424   1.400       .  A
C2423      N2430   1.426       .  S
C2424      C2425   1.398       .  A
C2424      H2429   1.084       .  S
C2425      C2426   1.415       .  A
C2426      N2427   1.437       .  S
N2427      H2431   1.046       .  S
N2427      H2432   1.045       .  S
N2430      H2433   1.045       .  S
N2430      H2434   1.045       .  S
C2435      C2436   1.400       .  A
C2435      C2440   1.405       .  A
C2435      H2442   1.084       .  S
C2436      C2437   1.411       .  A
C2437      C2438   1.410       .  A
C2437      N2444   1.439       .  S
C2438      C2439   1.405       .  A
C2438      H2443   1.083       .  S
C2439      C2440   1.413       .  A
C2440      N2441   1.433       .  S
N2441      H2445   1.046       .  S
N2441      H2446   1.045       .  S
N2444      H2447   1.044       .  S
N2444      H2448   1.046       .  S
C2449      C2450   1.407       .  A
C2449      C2454   1.409       .  A
C2449      H3356   1.083   1_545  S
C2450      C2451   1.415       .  A
C2451      C2452   1.401       .  A
C2451      N2458   1.431       .  S
C2452      C2453   1.400       .  A
C2452      H2457   1.084       .  S
C2453      C2454   1.417       .  A
C2454      N3355   1.437   1_545  S
N2455      C3354   1.437       .  S
N2455      H2459   1.045       .  S
N2455      H2460   1.044       .  S
H2456      C3349   1.083       .  S
N2458      H2461   1.046       .  S
N2458      H2462   1.046       .  S
C2463      C2464   1.407   1_565  A
C2463      C2468   1.416   1_565  A
C2463      H2470   1.083       .  S
C2464      C2465   1.412       .  A
C2465      C2466   1.392       .  A
C2465      N2472   1.440       .  S
C2466      C2467   1.405       .  A
C2466      H2471   1.081       .  S
C2467      C2468   1.416       .  A
C2468      N2469   1.437   1_545  S
N2469      H2473   1.046       .  S
N2469      H2474   1.045       .  S
N2472      H2475   1.043       .  S
N2472      H2476   1.046       .  S
C2477      C2478   1.405       .  A
C2477      C3382   1.400   1_545  A
C2477      H2484   1.084       .  S
C2478      C2479   1.419   1_545  A
C2479      C3380   1.405       .  A
C2479      N2486   1.439       .  S
C2480      C3379   1.404       .  A
C2480      C2481   1.403       .  A
C2480      H2485   1.084       .  S
C2481      C2482   1.417       .  A
C2482      C3377   1.400       .  A
C2482      N2483   1.440       .  S
N2483      H2487   1.045       .  S
N2483      H2488   1.043       .  S
N2486      H2489   1.042   1_565  S
N2486      H2490   1.046   1_565  S
C2491      C2492   1.404       .  A
C2491      C2496   1.402       .  A
C2491      H2498   1.084       .  S
C2492      C2493   1.412       .  A
C2493      C2494   1.402       .  A
C2493      N2500   1.438       .  S
C2494      C2495   1.403       .  A
C2494      H2499   1.084       .  S
C2495      C2496   1.416       .  A
C2496      N2497   1.438       .  S
N2497      H2501   1.045       .  S
N2497      H2502   1.043       .  S
N2500      H2503   1.045       .  S
N2500      H2504   1.045       .  S
C2505      C2506   1.404       .  A
C2505      C3410   1.409       .  A
C2505      H2512   1.084       .  S
C2506      C2507   1.412       .  A
C2507      C3408   1.410       .  A
C2507      N2514   1.437       .  S
C2508      C3407   1.410   1_545  A
C2508      C2509   1.402       .  A
C2508      H2513   1.084       .  S
C2509      C2510   1.411   1_545  A
C2510      C3405   1.408       .  A
C2510      N2511   1.438       .  S
N2511      H2515   1.045       .  S
N2511      H2516   1.045       .  S
N2514      H2517   1.045       .  S
N2514      H2518   1.046       .  S
C2519      C2520   1.402       .  A
C2519      C2524   1.407       .  A
C2519      H2526   1.084       .  S
C2520      C2521   1.408       .  A
C2521      C2522   1.401       .  A
C2521      N2528   1.432       .  S
C2522      C2523   1.403       .  A
C2522      H2527   1.084       .  S
C2523      C2524   1.411       .  A
C2524      N2525   1.437       .  S
N2525      H2529   1.046       .  S
N2525      H2530   1.045       .  S
N2528      H2531   1.046       .  S
N2528      H2532   1.045       .  S
C2533      C3434   1.405       .  A
C2533      C2538   1.403   1_565  A
C2533      H2540   1.084       .  S
C2534      C3433   1.406       .  A
C2534      C2535   1.417       .  A
C2535      C2536   1.402       .  A
C2535      N2542   1.439       .  S
C2536      C3437   1.401       .  A
C2536      H2541   1.084       .  S
C2537      C3436   1.401       .  A
C2537      C2538   1.408       .  A
C2538      N2539   1.438       .  S
N2539      H2543   1.046   1_545  S
N2539      H2544   1.045       .  S
N2542      H2545   1.043       .  S
N2542      H2546   1.046       .  S
C2547      C2548   1.403       .  A
C2547      C2552   1.401       .  A
C2547      H2554   1.084       .  S
C2548      C2549   1.414       .  A
C2549      C2550   1.401       .  A
C2549      N2556   1.433       .  S
C2550      C2551   1.404       .  A
C2550      H2555   1.084       .  S
C2551      C2552   1.418       .  A
C2552      N2553   1.438       .  S
N2553      H2557   1.045       .  S
N2553      H2558   1.043       .  S
N2556      H2559   1.046       .  S
N2556      H2560   1.044       .  S
C2561      C2562   1.404       .  A
C2561      C3466   1.405       .  A
C2561      H2568   1.084       .  S
C2562      C2563   1.407       .  A
C2563      C3464   1.408       .  A
C2563      N2570   1.437       .  S
C2564      C3463   1.407   1_545  A
C2564      C2565   1.406       .  A
C2564      H2569   1.084       .  S
C2565      C2566   1.412       .  A
C2566      C3461   1.406       .  A
C2566      N2567   1.438       .  S
N2567      H2571   1.046       .  S
N2567      H2572   1.046       .  S
N2570      H2573   1.046       .  S
N2570      H2574   1.046       .  S
C2575      C2576   1.401       .  A
C2575      C2580   1.404       .  A
C2575      H2582   1.084       .  S
C2576      C2577   1.413       .  A
C2577      C2578   1.409       .  A
C2577      N2584   1.437       .  S
C2578      C2579   1.401       .  A
C2578      H2583   1.084       .  S
C2579      C2580   1.413       .  A
C2580      N2581   1.439       .  S
N2581      H2585   1.046       .  S
N2581      H2586   1.046       .  S
N2584      H2587   1.045       .  S
N2584      H2588   1.046       .  S
C2589      C2590   1.404       .  A
C2589      C2594   1.404       .  A
C2589      H2596   1.084       .  S
C2590      C2591   1.411       .  A
C2591      C2592   1.402       .  A
C2591      N2598   1.433       .  S
C2592      C2593   1.399       .  A
C2592      H2597   1.084       .  S
C2593      C2594   1.417       .  A
C2594      N2595   1.439       .  S
N2595      H2599   1.046       .  S
N2595      H2600   1.044       .  S
N2598      H2601   1.045       .  S
N2598      H2602   1.046       .  S
C2603      C2604   1.404       .  A
C2603      C2608   1.412       .  A
C2603      H2610   1.083       .  S
C2604      C2605   1.407       .  A
C2605      C2606   1.397       .  A
C2605      N2612   1.430       .  S
C2606      C2607   1.403       .  A
C2606      H2611   1.082       .  S
C2607      C2608   1.412       .  A
C2608      N2609   1.436       .  S
N2609      H2613   1.045       .  S
N2609      H2614   1.045       .  S
N2612      H2615   1.045       .  S
N2612      H2616   1.046       .  S
C2617      C2618   1.396       .  A
C2617      C2622   1.396       .  A
C2617      H2624   1.084       .  S
C2618      C2619   1.411       .  A
C2619      C2620   1.412       .  A
C2619      N2626   1.438       .  S
C2620      C2621   1.406       .  A
C2620      H2625   1.083       .  S
C2621      C2622   1.415       .  A
C2622      N2623   1.438       .  S
N2623      H2627   1.045       .  S
N2623      H2628   1.046       .  S
N2626      H2629   1.044       .  S
N2626      H2630   1.046       .  S
C2631      C2632   1.399       .  A
C2631      C2636   1.402       .  A
C2631      H2638   1.084       .  S
C2632      C2633   1.417       .  A
C2633      C2634   1.405       .  A
C2633      N2640   1.438       .  S
C2634      C2635   1.404       .  A
C2634      H2639   1.084       .  S
C2635      C2636   1.414       .  A
C2636      N2637   1.438       .  S
N2637      H2641   1.046       .  S
N2637      H2642   1.045       .  S
N2640      H2643   1.044       .  S
N2640      H2644   1.046       .  S
C2645      C2646   1.398       .  A
C2645      C2650   1.395       .  A
C2645      H2652   1.084       .  S
C2646      C2647   1.409       .  A
C2647      C2648   1.408       .  A
C2647      N3554   1.437   1_545  S
C2648      C2649   1.406       .  A
C2648      H3553   1.083       .  S
C2649      C2650   1.423       .  A
C2650      N2651   1.432       .  S
N2651      H2655   1.045       .  S
N2651      H2656   1.042       .  S
H2653      C3548   1.083       .  S
N2654      C3547   1.437       .  S
N2654      H2657   1.045       .  S
N2654      H2658   1.046       .  S
C2659      C2660   1.407       .  A
C2659      C2664   1.410       .  A
C2659      H3566   1.084   1_545  S
C2660      C2661   1.414       .  A
C2661      C2662   1.397       .  A
C2661      N2668   1.435       .  S
C2662      C2663   1.401       .  A
C2662      H2667   1.082       .  S
C2663      C2664   1.409       .  A
C2664      N3565   1.437   1_545  S
N2665      C3564   1.437       .  S
N2665      H2669   1.046       .  S
N2665      H3570   1.046       .  S
H2666      C3559   1.084       .  S
N2668      H2671   1.041       .  S
N2668      H2672   1.046       .  S
H2670      N3565   1.046       .  S
C2673      C2674   1.401       .  A
C2673      C2678   1.401       .  A
C2673      H2680   1.084       .  S
C2674      C2675   1.417       .  A
C2675      C2676   1.408       .  A
C2675      N2682   1.438       .  S
C2676      C2677   1.408       .  A
C2676      H2681   1.084       .  S
C2677      C2678   1.417       .  A
C2678      N2679   1.438       .  S
N2679      H2683   1.046       .  S
N2679      H2684   1.045       .  S
N2682      H2685   1.043       .  S
N2682      H2686   1.046       .  S
C2687      C2688   1.407       .  A
C2687      C2692   1.408       .  A
C2687      H2694   1.083       .  S
C2688      C2689   1.418       .  A
C2689      C2690   1.399       .  A
C2689      N2696   1.439       .  S
C2690      C2691   1.400       .  A
C2690      H2695   1.084       .  S
C2691      C2692   1.417       .  A
C2692      N2693   1.437       .  S
N2693      H2697   1.045       .  S
N2693      H2698   1.043       .  S
N2696      H2699   1.046       .  S
N2696      H2700   1.046       .  S
N2701      H2733   1.038   1_545  S
N2701      C2705   1.353       .  A
N2702      C2710   1.352       .  A
N2703      H2734   1.037       .  S
N2703      C2708   1.354       .  A
N2704      C2712   1.349       .  A
C2705      C2713   1.387       .  A
C2705      C2721   1.416   1_545  A
C2706      C2722   1.415       .  A
C2706      C2714   1.388       .  A
C2707      C2715   1.386       .  A
C2707      C2724   1.415   1_545  A
C2708      C2723   1.419       .  A
C2708      C2716   1.390       .  A
C2709      C2721   1.415       .  A
C2709      C2717   1.386       .  A
C2710      C2724   1.413       .  A
C2710      C2718   1.386       .  A
C2711      C2719   1.386       .  A
C2711      C2722   1.411       .  A
C2712      C2720   1.387       .  A
C2712      C2723   1.412       .  A
C2713      H2725   1.083       .  S
C2714      H2726   1.082       .  S
C2715      H2727   1.083       .  S
C2716      H2728   1.082       .  S
C2717      H2729   1.082       .  S
C2718      H2730   1.082       .  S
C2719      H2731   1.082       .  S
C2720      H2732   1.082       .  S
C2721      C3591   1.492       .  S
C2722      C3560   1.484       .  S
C2723      C3546   1.484       .  S
C2724      C3574   1.491       .  S
N2735      H2767   1.039       .  S
N2735      C2740   1.353       .  A
N2735      C2739   1.353       .  A
N2736      C2744   1.351       .  A
N2737      H2768   1.038       .  S
N2737      C2742   1.354       .  A
N2737      C2741   1.355       .  A
N2738      C2746   1.350       .  A
C2739      C2747   1.386       .  A
C2739      C2755   1.412       .  A
C2740      C2756   1.419       .  A
C2740      C2748   1.388       .  A
C2741      C2749   1.386       .  A
C2741      C2758   1.416       .  A
C2742      C2757   1.420       .  A
C2742      C2750   1.389       .  A
C2743      C2755   1.414       .  A
C2743      C2751   1.386       .  A
C2744      C2758   1.411       .  A
C2744      C2752   1.386       .  A
C2745      C2753   1.387       .  A
C2745      C2756   1.415       .  A
C2746      C2754   1.386       .  A
C2746      C2757   1.414       .  A
C2747      C2748   1.373       .  A
C2747      H2759   1.082       .  S
C2748      H2760   1.082       .  S
C2749      C2750   1.372       .  A
C2749      H2761   1.082       .  S
C2750      H2762   1.082       .  S
C2751      H2763   1.082       .  S
C2752      H2764   1.082       .  S
C2753      H2765   1.082       .  S
C2754      H2766   1.082       .  S
C2755      C3518   1.486       .  S
C2756      C3490   1.494       .  S
C2757      C3504   1.488       .  S
C2758      C3532   1.489       .  S
N2769      N2770   1.326       .  A
N2769      N2775   1.314       .  A
N2769     Mn2798   2.218       .  S
N2770      C2777   1.358       .  A
N2771      N2773   1.313       .  A
N2771      N2772   1.315       .  A
N2771     Mn2787   2.179       .  S
N2772      C2778   1.349       .  A
N2773      N2774   1.327       .  A
N2773     Mn2798   2.222       .  S
N2774      C2778   1.360       .  A
N2775      N2776   1.317       .  A
N2775     Mn2787   2.185       .  S
N2776      C2777   1.350       .  A
C2777      C3535   1.484       .  S
C2778      C3521   1.490       .  S
N2779      N2785   1.313       .  A
N2779      N2780   1.325       .  A
N2779     Mn2809   2.211       .  S
N2780      C2788   1.357       .  A
N2781      N2782   1.315       .  A
N2781      N2783   1.313       .  A
N2781     Mn2787   2.180       .  S
N2782      C2789   1.349       .  A
N2783      N2784   1.327       .  A
N2783     Mn2809   2.223       .  S
N2784      C2789   1.361       .  A
N2785      N2786   1.316       .  A
N2785     Mn2787   2.187       .  S
N2786      C2788   1.351       .  A
Mn2787    Cl2811   2.541       .  S
C2788      C3577   1.488       .  S
C2789      C3588   1.492       .  S
N2790      N2791   1.321       .  A
N2790      N2796   1.317       .  A
N2790     Mn2798   2.205       .  S
N2791      C2799   1.353       .  A
N2792      N2794   1.317       .  A
N2792      N2793   1.323       .  A
N2792     Mn2810   2.216       .  S
N2793      C2800   1.356       .  A
N2794      N2795   1.317       .  A
N2794     Mn2798   2.199       .  S
N2795      C2800   1.351       .  A
N2796      N2797   1.321       .  A
N2796     Mn2810   2.222       .  S
N2797      C2799   1.356       .  A
Mn2798    Cl2811   2.550       .  S
C2799      C3448   1.481       .  S
C2800      C3479   1.473       .  S
N2801      N2802   1.318       .  A
N2801      N2807   1.318       .  A
N2801     Mn2809   2.195       .  S
N2802      C2812   1.350       .  A
N2803      N2804   1.320       .  A
N2803      N2805   1.317       .  A
N2803     Mn2810   2.210       .  S
N2804      C2813   1.355       .  A
N2805      N2806   1.319       .  A
N2805     Mn2809   2.197       .  S
N2806      C2813   1.351       .  A
N2807      N2808   1.324       .  A
N2807     Mn2810   2.226       .  S
N2808      C2812   1.356       .  A
Mn2809    Cl2811   2.549       .  S
Mn2810    Cl2811   2.543       .  S
C2812      C3462   1.477       .  S
C2813      C3434   1.474       .  S
N2814      N2815   1.325       .  A
N2814      N2820   1.313       .  A
N2814     Mn2843   2.211       .  S
N2815      C2822   1.356       .  A
N2816      N2818   1.314       .  A
N2816      N2817   1.319       .  A
N2816     Mn2832   2.194       .  S
N2817      C2823   1.350       .  A
N2818      N2819   1.324       .  A
N2818     Mn2843   2.205       .  S
N2819      C2823   1.354       .  A
N2820      N2821   1.319       .  A
N2820     Mn2832   2.199       .  S
N2821      C2822   1.352       .  A
C2822      C3507   1.482       .  S
C2823      C3493   1.472       .  S
N2824      N2830   1.314       .  A
N2824      N2825   1.324       .  A
N2824     Mn2854   2.217       .  S
N2825      C2833   1.358       .  A
N2826      N2827   1.315       .  A
N2826      N2828   1.315       .  A
N2826     Mn2832   2.182       .  S
N2827      C2834   1.349       .  A
N2828      N2829   1.324       .  A
N2828     Mn2854   2.213       .  S
N2829      C2834   1.356       .  A
N2830      N2831   1.317       .  A
N2830     Mn2832   2.183       .  S
N2831      C2833   1.349       .  A
Mn2832    Cl2856   2.538       .  S
C2833      C3549   1.486       .  S
C2834      C3563   1.474       .  S
N2835      N2836   1.319       .  A
N2835      N2841   1.315       .  A
N2835     Mn2843   2.193       .  S
N2836      C2844   1.352       .  A
N2837      N2839   1.317       .  A
N2837      N2838   1.322       .  A
N2837     Mn2855   2.221       .  S
N2838      C2845   1.357       .  A
N2839      N2840   1.317       .  A
N2839     Mn2843   2.194       .  S
N2840      C2845   1.350       .  A
N2841      N2842   1.320       .  A
N2841     Mn2855   2.213       .  S
N2842      C2844   1.356       .  A
Mn2843    Cl2856   2.551       .  S
C2844      C3392   1.480       .  S
C2845      C3420   1.472       .  S
N2846      N2847   1.322       .  A
N2846      N2852   1.318       .  A
N2846     Mn2854   2.212       .  S
N2847      C2857   1.353       .  A
N2848      N2849   1.320       .  A
N2848      N2850   1.317       .  A
N2848     Mn2855   2.213       .  S
N2849      C2858   1.355       .  A
N2850      N2851   1.320       .  A
N2850     Mn2854   2.198       .  S
N2851      C2858   1.352       .  A
N2852      N2853   1.323       .  A
N2852     Mn2855   2.221       .  S
N2853      C2857   1.355       .  A
Mn2854    Cl2856   2.553       .  S
Mn2855    Cl2856   2.544       .  S
C2857      C3409   1.481       .  S
C2858      C3378   1.479       .  S
N2859      H2891   1.039       .  S
N2859      C2863   1.355       .  A
N2860      C2867   1.352       .  A
N2860      C2868   1.352       .  A
N2861      H2892   1.039       .  S
N2861      C2865   1.352       .  A
N2862      C2869   1.351       .  A
N2862      C2870   1.353       .  A
C2863      C2871   1.385       .  A
C2863      C2879   1.414       .  A
C2864      C2880   1.418       .  A
C2864      C2872   1.389       .  A
C2865      C2873   1.386       .  A
C2865      C2882   1.412       .  A
C2866      C2881   1.420       .  A
C2866      C2874   1.389       .  A
C2867      C2879   1.413       .  A
C2867      C2875   1.385       .  A
C2868      C2882   1.413       .  A
C2868      C2876   1.386       .  A
C2869      C2877   1.386       .  A
C2869      C2880   1.415       .  A
C2870      C2878   1.387       .  A
C2870      C2881   1.418       .  A
C2871      H2883   1.082       .  S
C2872      H2884   1.082       .  S
C2873      H2885   1.082       .  S
C2874      H2886   1.082       .  S
C2875      C2876   1.378       .  A
C2875      H2887   1.082       .  S
C2876      H2888   1.082       .  S
C2877      C2878   1.379       .  A
C2877      H2889   1.082       .  S
C2878      H2890   1.082       .  S
C2879      C3353   1.493       .  S
C2880      C3325   1.489       .  S
C2881      C3339   1.501       .  S
C2882      C3364   1.487       .  S
N2893      H2925   1.039       .  S
N2893      C2898   1.353   1_556  A
N2893      C2897   1.353       .  A
N2894      C2901   1.352       .  A
N2894      C2902   1.351       .  A
N2895      H2926   1.034       .  S
N2895      C2900   1.355   1_556  A
N2895      C2899   1.353       .  A
N2896      C2903   1.350       .  A
N2896      C2904   1.349       .  A
C2897      C2905   1.386       .  A
C2897      C2913   1.413       .  A
C2898      C2914   1.416       .  A
C2898      C2906   1.388       .  A
C2899      C2907   1.387       .  A
C2899      C2916   1.416       .  A
C2900      C2915   1.421       .  A
C2900      C2908   1.389       .  A
C2901      C2913   1.412       .  A
C2901      C2909   1.385       .  A
C2902      C2916   1.412       .  A
C2902      C2910   1.386       .  A
C2903      C2911   1.386       .  A
C2903      C2914   1.413       .  A
C2904      C2912   1.386       .  A
C2904      C2915   1.413       .  A
C2905      C2906   1.374   1_556  A
C2905      H2917   1.083       .  S
C2906      H2918   1.082       .  S
C2907      C2908   1.371   1_556  A
C2907      H2919   1.082       .  S
C2908      H2920   1.082       .  S
C2909      C2910   1.376       .  A
C2909      H2921   1.082       .  S
C2910      H2922   1.082       .  S
C2911      C2912   1.376       .  A
C2911      H2923   1.082       .  S
C2912      H2924   1.082       .  S
C2913      C3294   1.492       .  S
C2914      C3266   1.492       .  S
C2915      C3280   1.488       .  S
C2916      C3308   1.484       .  S
N2927      N2928   1.323       .  A
N2927      N2933   1.314       .  A
N2927     Mn2956   2.209       .  S
N2928      C2935   1.356       .  A
N2929      N2931   1.314       .  A
N2929     Mn2945   2.184   1_455  S
N2930      C2936   1.350       .  A
N2931     Mn2956   2.211   1_455  S
N2932      C2936   1.357       .  A
N2933      N2934   1.317       .  A
N2933     Mn2945   2.185       .  S
N2934      C2935   1.351       .  A
C2935      C3311   1.482       .  S
C2936      C3297   1.485       .  S
N2937      N2943   1.313       .  A
N2937     Mn2967   2.226   1_455  S
N2938      C2946   1.360       .  A
N2939      N2940   1.317       .  A
N2939      N2941   1.313       .  A
N2939     Mn2945   2.187       .  S
N2940      C2947   1.352       .  A
N2941      N2942   1.325       .  A
N2941     Mn2967   2.215       .  S
N2942      C2947   1.358       .  A
N2943     Mn2945   2.188   1_455  S
N2944      C2946   1.351       .  A
Mn2945    Cl2969   2.546       .  S
C2946      C3350   1.496       .  S
C2947      C3367   1.491       .  S
N2948      N2949   1.319       .  A
N2948      N2954   1.317       .  A
N2949      C2957   1.351       .  A
N2950      N2952   1.317       .  A
N2950      N2951   1.323       .  A
N2950     Mn2968   2.221       .  S
N2951      C2958   1.357       .  A
N2952      N2953   1.319       .  A
N2952     Mn2956   2.197       .  S
N2953      C2958   1.351       .  A
N2954      N2955   1.323       .  A
N2955      C2957   1.356       .  A
Mn2956    Cl2969   2.542       .  S
C2957      C3224   1.478       .  S
C2958      C3255   1.483       .  S
N2959      N2960   1.320       .  A
N2959      N2965   1.318       .  A
N2959     Mn2967   2.209       .  S
N2960      C2970   1.353       .  A
N2961      N2962   1.320       .  A
N2961      N2963   1.316       .  A
N2962      C2971   1.355       .  A
N2963      N2964   1.318       .  A
N2964      C2971   1.352       .  A
N2965      N2966   1.322       .  A
N2965     Mn2968   2.219       .  S
N2966      C2970   1.356       .  A
Mn2967    Cl2969   2.544       .  S
Mn2968    Cl2969   2.553       .  S
C2970      C3241   1.484       .  S
C2971      C3210   1.469       .  S
N2972      H3004   1.040       .  S
N2972      C2977   1.355       .  A
N2972      C2976   1.353       .  A
N2973      C2980   1.351       .  A
N2973      C2981   1.352       .  A
N2974      H3005   1.040       .  S
N2974      C2979   1.353       .  A
N2974      C2978   1.354       .  A
N2975      C2982   1.350       .  A
N2975      C2983   1.350       .  A
C2976      C2984   1.388       .  A
C2976      C2992   1.418       .  A
C2977      C2993   1.416       .  A
C2977      C2985   1.386       .  A
C2978      C2986   1.387       .  A
C2978      C2995   1.416       .  A
C2979      C2994   1.416       .  A
C2979      C2987   1.387       .  A
C2980      C2992   1.413       .  A
C2980      C2988   1.387       .  A
C2981      C2995   1.413       .  A
C2981      C2989   1.386       .  A
C2982      C2990   1.386       .  A
C2982      C2993   1.412       .  A
C2983      C2991   1.386       .  A
C2983      C2994   1.410       .  A
C2984      C2985   1.379       .  A
C2984      H2996   1.082       .  S
C2985      H2997   1.082       .  S
C2986      C2987   1.379       .  A
C2986      H2998   1.082       .  S
C2987      H2999   1.082       .  S
C2988      C2989   1.372       .  A
C2988      H3000   1.082       .  S
C2989      H3001   1.082       .  S
C2990      C2991   1.372       .  A
C2992      C3395   1.492       .  S
C2993      C3381   1.491       .  S
C2994      C3213   1.485       .  S
C2995      C3227   1.493       .  S
N3006      H3038   1.039       .  S
N3006      C3011   1.354       .  A
N3006      C3010   1.355       .  A
N3007      C3014   1.353       .  A
N3007      C3015   1.352       .  A
N3008      H3039   1.039       .  S
N3008      C3013   1.353       .  A
N3008      C3012   1.352       .  A
N3009      C3016   1.351       .  A
N3009      C3017   1.353       .  A
C3010      C3018   1.387       .  A
C3010      C3026   1.418       .  A
C3011      C3027   1.418       .  A
C3011      C3019   1.387       .  A
C3012      C3020   1.389       .  A
C3012      C3029   1.416       .  A
C3013      C3028   1.412       .  A
C3013      C3021   1.385       .  A
C3014      C3026   1.416       .  A
C3014      C3022   1.386       .  A
C3015      C3029   1.417       .  A
C3015      C3023   1.387       .  A
C3016      C3024   1.388       .  A
C3016      C3027   1.417       .  A
C3017      C3025   1.384       .  A
C3017      C3028   1.413       .  A
C3018      C3019   1.377       .  A
C3020      C3021   1.373       .  A
C3020      H3032   1.081       .  S
C3021      H3033   1.082       .  S
C3022      C3023   1.377       .  A
C3022      H3034   1.082       .  S
C3023      H3035   1.082       .  S
C3024      C3025   1.375       .  A
C3024      H3036   1.082       .  S
C3025      H3037   1.082       .  S
C3026      C3406   1.494       .  S
C3027      C3238   1.494       .  S
C3028      C3252   1.492       .  S
C3029      C3423   1.488       .  S
N3040      H3072   1.032       .  S
N3040      C3045   1.354       .  A
N3040      C3044   1.354       .  A
N3041      C3048   1.353       .  A
N3041      C3049   1.352       .  A
N3042      H3073   1.035       .  S
N3042      C3047   1.355       .  A
N3042      C3046   1.355       .  A
N3043      C3050   1.353       .  A
N3043      C3051   1.354       .  A
C3044      C3052   1.386       .  A
C3044      C3060   1.419       .  A
C3045      C3061   1.422       .  A
C3045      C3053   1.389       .  A
C3046      C3054   1.386       .  A
C3046      C3063   1.417       .  A
C3047      C3062   1.420       .  A
C3047      C3055   1.388       .  A
C3048      C3060   1.415       .  A
C3048      C3056   1.386       .  A
C3049      C3063   1.415       .  A
C3049      C3057   1.387       .  A
C3050      C3058   1.388       .  A
C3050      C3061   1.421       .  A
C3051      C3059   1.386       .  A
C3051      C3062   1.418       .  A
C3052      C3053   1.377       .  A
C3052      H3064   1.082       .  S
C3053      H3065   1.082       .  S
C3054      C3055   1.376       .  A
C3054      H3066   1.082       .  S
C3055      H3067   1.082       .  S
C3056      C3057   1.370       .  A
C3058      C3059   1.371       .  A
C3058      H3070   1.082       .  S
C3059      H3071   1.082       .  S
C3060      C3185   1.489       .  S
C3061      C3196   1.492       .  S
C3062      C3451   1.494       .  S
C3063      C3437   1.489       .  S
N3074      H3106   1.037       .  S
N3074      C3079   1.354       .  A
N3074      C3078   1.354       .  A
N3075      C3082   1.353       .  A
N3075      C3083   1.352       .  A
N3076      H3107   1.039       .  S
N3076      C3081   1.354       .  A
N3076      C3080   1.353       .  A
N3077      C3084   1.350       .  A
N3077      C3085   1.352       .  A
C3078      C3086   1.388       .  A
C3078      C3094   1.418       .  A
C3079      C3095   1.417       .  A
C3079      C3087   1.387       .  A
C3080      C3088   1.387       .  A
C3080      C3097   1.413       .  A
C3081      C3096   1.413       .  A
C3081      C3089   1.386       .  A
C3082      C3094   1.417       .  A
C3082      C3090   1.387       .  A
C3083      C3097   1.415       .  A
C3083      C3091   1.386       .  A
C3084      C3092   1.387       .  A
C3084      C3095   1.414       .  A
C3085      C3093   1.385       .  A
C3085      C3096   1.412       .  A
C3086      C3087   1.376       .  A
C3088      C3089   1.374       .  A
C3088      H3100   1.082       .  S
C3089      H3101   1.082       .  S
C3090      C3091   1.375       .  A
C3090      H3102   1.082       .  S
C3091      H3103   1.082       .  S
C3092      C3093   1.375       .  A
C3092      H3104   1.082       .  S
C3093      H3105   1.082       .  S
C3094      C3465   1.494       .  S
C3095      C3157   1.488       .  S
C3096      C3168   1.492       .  S
C3097      C3476   1.489       .  S
N3108      N3109   1.327       .  A
N3108      N3114   1.314       .  A
N3108     Mn3137   2.229       .  S
N3109      C3116   1.361       .  A
N3110      N3112   1.315       .  A
N3110     Mn3126   2.202   1_455  S
N3111      C3117   1.353       .  A
N3112     Mn3137   2.208   1_455  S
N3113      C3117   1.353       .  A
N3114      N3115   1.314       .  A
N3114     Mn3126   2.177       .  S
N3115      C3116   1.347       .  A
C3116      C3283   1.486       .  S
C3117      C3269   1.477       .  S
N3118      N3124   1.314       .  A
N3118     Mn3148   2.220   1_455  S
N3119      C3127   1.356       .  A
N3120      N3121   1.321       .  A
N3120      N3122   1.315       .  A
N3120     Mn3126   2.209       .  S
N3121      C3128   1.353       .  A
N3122      N3123   1.324       .  A
N3122     Mn3148   2.207       .  S
N3123      C3128   1.353       .  A
N3124     Mn3126   2.188   1_455  S
N3125      C3127   1.350       .  A
Mn3126    Cl3150   2.539       .  S
C3127      C3322   1.478       .  S
C3128      C3336   1.477       .  S
N3129      N3130   1.319       .  A
N3129      N3135   1.318       .  A
N3130      C3138   1.352       .  A
N3131      N3133   1.318       .  A
N3131      N3132   1.321       .  A
N3131     Mn3149   2.215       .  S
N3132      C3139   1.354       .  A
N3133      N3134   1.321       .  A
N3133     Mn3137   2.199       .  S
N3134      C3139   1.353       .  A
N3135      N3136   1.321       .  A
N3136      C3138   1.355       .  A
Mn3137    Cl3150   2.557       .  S
C3138      C3199   1.473       .  S
C3139      C3171   1.485       .  S
N3140      N3141   1.323       .  A
N3140      N3146   1.318       .  A
N3140     Mn3148   2.213       .  S
N3141      C3151   1.356       .  A
N3142      N3143   1.323       .  A
N3142      N3144   1.317       .  A
N3143      C3152   1.357       .  A
N3144      N3145   1.318       .  A
N3145      C3152   1.350       .  A
N3146      N3147   1.318       .  A
N3146     Mn3149   2.208       .  S
N3147      C3151   1.352       .  A
Mn3148    Cl3150   2.558       .  S
Mn3149    Cl3150   2.540       .  S
C3151      C3154   1.486       .  S
C3152      C3182   1.475       .  S
C3153      C3154   1.405   1_545  A
C3153      H3160   1.084       .  S
C3154      C3155   1.417       .  A
C3155      N3162   1.438       .  S
C3156      C3157   1.399       .  A
C3156      H3161   1.084       .  S
C3157      C3158   1.411       .  A
C3158      N3159   1.438       .  S
N3159      H3163   1.046       .  S
N3159      H3164   1.045       .  S
N3162      H3165   1.045       .  S
C3167      C3168   1.403       .  A
C3167      C3172   1.406       .  A
C3167      H3174   1.084       .  S
C3168      C3169   1.417       .  A
C3169      C3170   1.403       .  A
C3169      N3176   1.438       .  S
C3170      C3171   1.403       .  A
C3170      H3175   1.084       .  S
C3171      C3172   1.416       .  A
C3172      N3173   1.438       .  S
N3173      H3177   1.046       .  S
N3173      H3178   1.045       .  S
N3176      H3179   1.043       .  S
N3176      H3180   1.045       .  S
C3181      C3182   1.400       .  A
C3181      H3188   1.084       .  S
C3182      C3183   1.412   1_565  A
C3183      N3190   1.439   1_545  S
C3184      C3185   1.402       .  A
C3184      H3189   1.084       .  S
C3185      C3186   1.418       .  A
C3186      N3187   1.438       .  S
N3187      H3191   1.046       .  S
N3187      H3192   1.043       .  S
C3195      C3196   1.405       .  A
C3195      C3200   1.404       .  A
C3195      H3202   1.084       .  S
C3196      C3197   1.417       .  A
C3197      C3198   1.400       .  A
C3197      N3204   1.439       .  S
C3198      C3199   1.402       .  A
C3198      H3203   1.085       .  S
C3199      C3200   1.414       .  A
C3200      N3201   1.439       .  S
N3201      H3205   1.045       .  S
N3201      H3206   1.044       .  S
N3204      H3207   1.043       .  S
C3209      C3210   1.400       .  A
C3209      H3216   1.084       .  S
C3210      C3211   1.411       .  A
C3212      C3213   1.400       .  A
C3212      H3217   1.084       .  S
C3213      C3214   1.418       .  A
C3214      N3215   1.438       .  S
N3215      H3219   1.046   1_565  S
N3215      H3220   1.043       .  S
N3218      H3221   1.045       .  S
N3218      H3222   1.046   1_455  S
C3223      C3224   1.401       .  A
C3223      C3228   1.409       .  A
C3223      H3230   1.084       .  S
C3224      C3225   1.414       .  A
C3225      C3226   1.406       .  A
C3225      N3232   1.439       .  S
C3226      C3227   1.402       .  A
C3226      H3231   1.084       .  S
C3227      C3228   1.413       .  A
C3228      N3229   1.437       .  S
N3229      H3233   1.046       .  S
N3229      H3234   1.046       .  S
C3237      C3238   1.404       .  A
C3237      C3242   1.407       .  A
C3237      H3244   1.084       .  S
C3238      C3239   1.411       .  A
C3239      N3246   1.438       .  S
C3240      C3241   1.404       .  A
C3240      H3245   1.083       .  S
C3242      N3243   1.438       .  S
N3243      H3247   1.046       .  S
N3246      H3249   1.046       .  S
C3251      C3252   1.402       .  A
C3251      C3256   1.409       .  A
C3251      H3258   1.084       .  S
C3252      C3253   1.411       .  A
C3253      C3254   1.406       .  A
C3253      N3260   1.438       .  S
C3254      C3255   1.404       .  A
C3254      H3259   1.084       .  S
C3255      C3256   1.413       .  A
C3256      N3257   1.438       .  S
N3257      H3261   1.046       .  S
N3257      H3262   1.045       .  S
N3260      H3263   1.044       .  S
N3260      H3264   1.046       .  S
C3265      C3266   1.406       .  A
C3265      C3270   1.404       .  A
C3265      H3272   1.084       .  S
C3266      C3267   1.406       .  A
C3267      C3268   1.403       .  A
C3267      N3274   1.433       .  S
C3268      C3269   1.401       .  A
C3268      H3273   1.079       .  S
C3269      C3270   1.415       .  A
C3270      N3271   1.438       .  S
N3271      H3275   1.045       .  S
N3271      H3276   1.043       .  S
N3274      H3277   1.044       .  S
N3274      H3278   1.045       .  S
C3279      C3280   1.397       .  A
C3279      C3284   1.396       .  A
C3279      H3286   1.085       .  S
C3280      C3281   1.418       .  A
C3281      C3282   1.408       .  A
C3281      N3288   1.438       .  S
C3282      C3283   1.406       .  A
C3282      H3287   1.084       .  S
C3283      C3284   1.416       .  A
C3284      N3285   1.432       .  S
N3285      H3289   1.044       .  S
N3285      H3290   1.046       .  S
N3288      H3291   1.043       .  S
N3288      H3292   1.045       .  S
C3293      C3294   1.401       .  A
C3293      C3298   1.395       .  A
C3293      H3300   1.084       .  S
C3294      C3295   1.412       .  A
C3295      C3296   1.414       .  A
C3295      N3302   1.437       .  S
C3296      C3297   1.408       .  A
C3296      H3301   1.083       .  S
C3297      C3298   1.411       .  A
C3298      N3299   1.433       .  S
N3299      H3303   1.046       .  S
N3299      H3304   1.044       .  S
N3302      H3305   1.046       .  S
N3302      H3306   1.046       .  S
C3307      C3308   1.399       .  A
C3307      C3312   1.399       .  A
C3307      H3314   1.084       .  S
C3308      C3309   1.416       .  A
C3309      C3310   1.404       .  A
C3309      N3316   1.438       .  S
C3310      C3311   1.405       .  A
C3310      H3315   1.084       .  S
C3311      C3312   1.412       .  A
C3312      N3313   1.432       .  S
N3313      H3317   1.046       .  S
N3313      H3318   1.046       .  S
N3316      H3319   1.044       .  S
N3316      H3320   1.046       .  S
C3321      C3322   1.402       .  A
C3321      C3326   1.412       .  A
C3321      H3328   1.083   1_565  S
C3322      C3323   1.405       .  A
C3323      C3324   1.399       .  A
C3323      N3330   1.426       .  S
C3324      C3325   1.398       .  A
C3324      H3329   1.084       .  S
C3325      C3326   1.415       .  A
C3326      N3327   1.437   1_565  S
N3327      H3331   1.046       .  S
N3327      H3332   1.045       .  S
N3330      H3333   1.045       .  S
N3330      H3334   1.045       .  S
C3335      C3336   1.400       .  A
C3335      C3340   1.405       .  A
C3335      H3342   1.084   1_565  S
C3336      C3337   1.410       .  A
C3337      C3338   1.411       .  A
C3337      N3344   1.439       .  S
C3338      C3339   1.406       .  A
C3338      H3343   1.083       .  S
C3339      C3340   1.414       .  A
C3340      N3341   1.433   1_565  S
N3341      H3345   1.046       .  S
N3341      H3346   1.045       .  S
N3344      H3347   1.044       .  S
N3344      H3348   1.046       .  S
C3349      C3350   1.408       .  A
C3349      C3354   1.410       .  A
C3350      C3351   1.416       .  A
C3351      C3352   1.401       .  A
C3351      N3358   1.432       .  S
C3352      C3353   1.399       .  A
C3352      H3357   1.084       .  S
C3353      C3354   1.417       .  A
N3355      H3359   1.045       .  S
N3355      H3360   1.043       .  S
N3358      H3361   1.046       .  S
N3358      H3362   1.046       .  S
C3363      C3364   1.404       .  A
C3363      C3368   1.415       .  A
C3363      H3370   1.083       .  S
C3364      C3365   1.409       .  A
C3365      C3366   1.392       .  A
C3365      N3372   1.434       .  S
C3366      C3367   1.406       .  A
C3366      H3371   1.082       .  S
C3367      C3368   1.418       .  A
C3368      N3369   1.437       .  S
N3369      H3373   1.046       .  S
N3369      H3374   1.045       .  S
N3372      H3375   1.046       .  S
N3372      H3376   1.045       .  S
C3377      C3378   1.404       .  A
C3377      H3384   1.084       .  S
C3378      C3379   1.417       .  A
C3379      N3386   1.439       .  S
C3380      C3381   1.403       .  A
C3380      H3385   1.084       .  S
C3381      C3382   1.417       .  A
C3382      N3383   1.440       .  S
N3383      H3387   1.045       .  S
N3383      H3388   1.043       .  S
N3386      H3389   1.043       .  S
N3386      H3390   1.046       .  S
C3391      C3392   1.405       .  A
C3391      C3396   1.403       .  A
C3391      H3398   1.084       .  S
C3392      C3393   1.412       .  A
C3393      C3394   1.403       .  A
C3393      N3400   1.438       .  S
C3394      C3395   1.404       .  A
C3394      H3399   1.084       .  S
C3395      C3396   1.417       .  A
C3396      N3397   1.438       .  S
N3397      H3401   1.045       .  S
N3397      H3402   1.043       .  S
N3400      H3403   1.046       .  S
N3400      H3404   1.045       .  S
C3405      C3406   1.403       .  A
C3405      H3412   1.084       .  S
C3406      C3407   1.412       .  A
C3407      N3414   1.437       .  S
C3408      C3409   1.401       .  A
C3408      H3413   1.084       .  S
C3409      C3410   1.412       .  A
C3410      N3411   1.438       .  S
N3411      H3415   1.045       .  S
N3411      H3416   1.045       .  S
N3414      H3417   1.045       .  S
N3414      H3418   1.046       .  S
C3419      C3420   1.402       .  A
C3419      C3424   1.409       .  A
C3419      H3426   1.084       .  S
C3420      C3421   1.408       .  A
C3421      C3422   1.401       .  A
C3421      N3428   1.433       .  S
C3422      C3423   1.402       .  A
C3422      H3427   1.084       .  S
C3423      C3424   1.411       .  A
C3424      N3425   1.437       .  S
N3425      H3429   1.046       .  S
N3425      H3430   1.046       .  S
N3428      H3431   1.046       .  S
N3428      H3432   1.045       .  S
C3433      C3438   1.406       .  A
C3433      H3440   1.084       .  S
C3434      C3435   1.417       .  A
C3435      C3436   1.402   1_565  A
C3435      N3442   1.439       .  S
C3436      H3441   1.084       .  S
C3437      C3438   1.410       .  A
C3438      N3439   1.438       .  S
N3439      H3443   1.046       .  S
N3439      H3444   1.045       .  S
N3442      H3445   1.043       .  S
N3442      H3446   1.046       .  S
C3447      C3448   1.403       .  A
C3447      C3452   1.401       .  A
C3447      H3454   1.084       .  S
C3448      C3449   1.413       .  A
C3449      C3450   1.403       .  A
C3449      N3456   1.433       .  S
C3450      C3451   1.406       .  A
C3450      H3455   1.084       .  S
C3451      C3452   1.418       .  A
C3452      N3453   1.438       .  S
N3453      H3457   1.045       .  S
N3453      H3458   1.043       .  S
N3456      H3459   1.046       .  S
N3456      H3460   1.045       .  S
C3461      C3462   1.405   1_545  A
C3461      H3468   1.084       .  S
C3462      C3463   1.406       .  A
C3463      N3470   1.437       .  S
C3464      C3465   1.406       .  A
C3464      H3469   1.084       .  S
C3465      C3466   1.411       .  A
C3466      N3467   1.438       .  S
N3467      H3471   1.046       .  S
N3467      H3472   1.045       .  S
N3470      H3473   1.046       .  S
N3470      H3474   1.046       .  S
C3475      C3476   1.400       .  A
C3475      C3480   1.402       .  A
C3475      H3482   1.084       .  S
C3476      C3477   1.413       .  A
C3477      C3478   1.409       .  A
C3477      N3484   1.437       .  S
C3478      C3479   1.401       .  A
C3478      H3483   1.084       .  S
C3479      C3480   1.412       .  A
C3480      N3481   1.439       .  S
N3481      H3485   1.046       .  S
N3481      H3486   1.046       .  S
N3484      H3487   1.046       .  S
N3484      H3488   1.046       .  S
C3489      C3490   1.404       .  A
C3489      C3494   1.404       .  A
C3489      H3496   1.084       .  S
C3490      C3491   1.411       .  A
C3491      C3492   1.402       .  A
C3491      N3498   1.432       .  S
C3492      C3493   1.399       .  A
C3492      H3497   1.084       .  S
C3493      C3494   1.417       .  A
C3494      N3495   1.439       .  S
N3495      H3499   1.046       .  S
N3495      H3500   1.044       .  S
N3498      H3501   1.045       .  S
N3498      H3502   1.046       .  S
C3503      C3504   1.404       .  A
C3503      C3508   1.413       .  A
C3503      H3510   1.083       .  S
C3504      C3505   1.408       .  A
C3505      C3506   1.396       .  A
C3505      N3512   1.431       .  S
C3506      C3507   1.402       .  A
C3506      H3511   1.082       .  S
C3507      C3508   1.413       .  A
C3508      N3509   1.437       .  S
N3509      H3513   1.045       .  S
N3509      H3514   1.045       .  S
N3512      H3515   1.046       .  S
N3512      H3516   1.045       .  S
C3517      C3518   1.396       .  A
C3517      C3522   1.400       .  A
C3517      H3524   1.084       .  S
C3518      C3519   1.410       .  A
C3519      C3520   1.413       .  A
C3519      N3526   1.437       .  S
C3520      C3521   1.408       .  A
C3520      H3525   1.083       .  S
C3521      C3522   1.418       .  A
C3522      N3523   1.438       .  S
N3523      H3527   1.046       .  S
N3523      H3528   1.046       .  S
N3526      H3529   1.045       .  S
N3526      H3530   1.046       .  S
C3531      C3532   1.399       .  A
C3531      C3536   1.403       .  A
C3531      H3538   1.084       .  S
C3532      C3533   1.418       .  A
C3533      C3534   1.406       .  A
C3533      N3540   1.438       .  S
C3534      C3535   1.404       .  A
C3534      H3539   1.084       .  S
C3535      C3536   1.414       .  A
C3536      N3537   1.438       .  S
N3537      H3541   1.046       .  S
N3537      H3542   1.046       .  S
N3540      H3543   1.044       .  S
N3540      H3544   1.045       .  S
C3545      C3546   1.398       .  A
C3545      C3550   1.396       .  A
C3545      H3552   1.084       .  S
C3546      C3547   1.408       .  A
C3547      C3548   1.408       .  A
C3548      C3549   1.406       .  A
C3549      C3550   1.421       .  A
C3550      N3551   1.431       .  S
N3551      H3555   1.045       .  S
N3551      H3556   1.042       .  S
N3554      H3557   1.045       .  S
N3554      H3558   1.045       .  S
C3559      C3560   1.405       .  A
C3559      C3564   1.408       .  A
C3560      C3561   1.412       .  A
C3561      C3562   1.395       .  A
C3561      N3568   1.437       .  S
C3562      C3563   1.401       .  A
C3562      H3567   1.082       .  S
C3563      C3564   1.409       .  A
N3565      H3569   1.046       .  S
N3568      H3571   1.042       .  S
N3568      H3572   1.045       .  S
C3573      C3574   1.401       .  A
C3573      C3578   1.400       .  A
C3573      H3580   1.084       .  S
C3574      C3575   1.417       .  A
C3575      C3576   1.408       .  A
C3575      N3582   1.438   1_565  S
C3576      C3577   1.408       .  A
C3576      H3581   1.084       .  S
C3577      C3578   1.415       .  A
C3578      N3579   1.438       .  S
N3579      H3583   1.046       .  S
N3579      H3584   1.046       .  S
N3582      H3585   1.043       .  S
N3582      H3586   1.046   1_545  S
C3587      C3588   1.407       .  A
C3587      C3592   1.408       .  A
C3587      H3594   1.083       .  S
C3588      C3589   1.419       .  A
C3589      C3590   1.401       .  A
C3589      N3596   1.438       .  S
C3590      C3591   1.399       .  A
C3590      H3595   1.084       .  S
C3591      C3592   1.417       .  A
C3592      N3593   1.438   1_565  S
N3593      H3597   1.045       .  S
N3593      H3598   1.043       .  S
N3596      H3599   1.046       .  S
N3596      H3600   1.046       .  S
