geometry optimzed in LAMMPS
_audit_creation_date              2020-12-01 
_audit_creation_method            'lammps2cif' 
_symmetry_space_group_name_H-M    'P1' 
_symmetry_Int_Tables_number       1 
_symmetry_cell_setting            triclinic 
loop_ 
_symmetry_equiv_pos_as_xyz 
  x,y,z 
_cell_length_a                    41.41254271 
_cell_length_b                    41.56137094366306 
_cell_length_c                    31.33092640779767 
_cell_angle_alpha                 90.08295852249411 
_cell_angle_beta                  90.21248289011031 
_cell_angle_gamma                 90.07371093904872 
loop_ 
_atom_site_label 
_atom_site_type_symbol 
_atom_site_fract_x 
_atom_site_fract_y 
_atom_site_fract_z 
_atom_site_charge 
Zr1        Zr  0.00047748  0.04805712  0.19985583     2.17500
O2          O  0.99685214  0.09896484  0.16128315    -0.51700
O3          O  0.99906397  0.03035025  0.12453515    -0.74900
O4          O  0.05229522  0.07684918  0.19398515    -0.81700
O5          O  0.91093693  0.05139495  0.23344861    -0.83500
O6          O  0.09191726  0.04832083  0.22729427    -0.79100
O7          O  0.95031503  0.07875781  0.19829792    -0.90700
O8          O  0.99548227  0.97604400  0.12164289    -0.76700
O9          O  0.03421567  0.00191365  0.19535370    -0.86200
O10         O  0.96471058  0.00296922  0.19712900    -0.85900
O11         O  0.03191860  0.04907559  0.26496486    -0.72600
O12         O  0.96933023  0.04894165  0.26471082    -0.84700
Zr13       Zr  0.00177353  0.95682710  0.32203277     2.26400
Zr14       Zr  0.06566670  0.00245487  0.25993768     2.06300
Zr15       Zr  0.93496698  0.00293429  0.26263514     2.10000
Zr16       Zr  0.99843896  0.95685689  0.19361303     1.78800
O17         O  0.89847022  0.02049757  0.31875824    -0.93600
O18         O  0.04391710  0.93209939  0.15695987    -0.41400
O19         O  0.96885744  0.95670489  0.25858019    -0.78000
O20         O  0.03143690  0.95591306  0.25590494    -0.96700
O21         O  0.03599413  0.00284236  0.32552173    -0.90000
O22         O  0.96664508  0.00227644  0.32660017    -0.92800
C23         C  0.99668259  0.00362917  0.10382009     1.00900
C24         C  0.92126107  0.07556091  0.21197688     1.13900
C25         C  0.08170815  0.07270019  0.20620313     1.04600
O26         O  0.10627385  0.98314614  0.21005135    -0.95000
O27         O  0.09221779  0.95612850  0.29036616    -0.90700
O28         O  0.05397412  0.92845439  0.32725049    -0.83900
C29         C  0.08281318  0.93207164  0.31266378     1.11300
O30         O  0.00095240  0.10653211  0.31927453    -0.97000
Zr31       Zr  0.00082520  0.04826191  0.32870995     1.88900
O32         O  0.00171534  0.97417397  0.39746320    -0.73600
O33         O  0.10454824  0.02087014  0.31310198    -0.52900
O34         O  0.04831188  0.07061030  0.36414070    -0.97500
O35         O  0.95480268  0.07442655  0.36246638    -0.54800
O36         O  0.99959437  0.02857018  0.40071608    -0.74100
C37         C  0.00049546  0.00088809  0.41839160     0.98200
O38         O  0.99724473  0.90359063  0.35417153    -0.62900
O39         O  0.88995658  0.98922332  0.21560922    -0.57700
O40         O  0.95156460  0.92597099  0.32540930    -0.94400
O41         O  0.91248519  0.95269963  0.28860612    -0.92900
O42         O  0.94902445  0.93307825  0.16521703    -0.93200
O43         O  0.99907918  0.89837838  0.19869694    -0.92000
C44         C  0.92270544  0.92872816  0.31065828     1.17100
H45         H  0.95018131  0.00424598  0.17299306     0.33000
H46         H  0.04348761  0.93630970  0.25205630     0.43900
H47         H  0.95301078  0.00079701  0.35146111     0.37400
H48         H  0.04419625  0.06856942  0.26847012     0.33900
H49         H  0.03449576  0.92235529  0.13086676     0.25700
H50         H  0.12529256  0.02227083  0.29760746     0.31600
H51         H  0.04042683  0.07859699  0.39200853     0.37500
H52         H  0.93802377  0.92368186  0.19030221     0.32000
H53         H  0.89134183  0.96566206  0.21134818     0.30800
H54         H  0.87703631  0.01213786  0.31007819     0.32500
H55         H  0.96345678  0.08354114  0.38940554     0.31500
H56         H  0.99695236  0.89391052  0.22959796     0.35500
H57         H  0.00605226  0.88836073  0.33284345     0.28200
H58         H  0.01299258  0.09770682  0.13810172     0.32500
H59         H  0.00502503  0.11583541  0.34789947     0.35300
H60         H  0.87041296  0.99236261  0.23323433     0.27900
H61         H  0.01278096  0.90319293  0.37819756     0.40800
H62         H  0.09965905  0.99185885  0.18195417     0.30800
H63         H  0.05695022  0.95038618  0.14636436     0.38500
H64         H  0.94051786  0.05668562  0.37175450     0.30300
H65         H  0.09855255  0.04347680  0.31888690     0.30400
H66         H  0.00521987  0.11563879  0.18107101     0.30600
Zr67       Zr  0.99696475  0.04897398  0.70185489     2.17500
O68         O  0.99471467  0.10201125  0.66852678    -0.51700
O69         O  0.99711837  0.03311657  0.62590944    -0.74900
O70         O  0.05014384  0.07493393  0.69578173    -0.81700
O71         O  0.90760970  0.05542543  0.73504286    -0.83500
O72         O  0.08797215  0.04414751  0.72854183    -0.79100
O73         O  0.94775472  0.08114152  0.69939441    -0.90700
O74         O  0.99618385  0.97875398  0.62099645    -0.76700
O75         O  0.02907371  0.00176997  0.69656690    -0.86200
O76         O  0.95998697  0.00508994  0.69597953    -0.85900
O77         O  0.02739916  0.04778577  0.76772685    -0.72600
O78         O  0.96465542  0.04951058  0.76566930    -0.84700
Zr79       Zr  0.99267839  0.95487128  0.82043355     2.26400
Zr80       Zr  0.05923749  0.99994419  0.76190037     2.06300
Zr81       Zr  0.92885916  0.00473871  0.76041656     2.10000
Zr82       Zr  0.99209098  0.95787906  0.69208804     1.78800
O83         O  0.89017469  0.02128080  0.81447092    -0.93600
O84         O  0.03746464  0.92931297  0.66040534    -0.41400
O85         O  0.96109778  0.95727345  0.75592941    -0.78000
O86         O  0.02386913  0.95439795  0.75540442    -0.96700
O87         O  0.02836213  0.99977008  0.82640993    -0.90000
O88         O  0.95920894  0.00146592  0.82543412    -0.92800
C89         C  0.99714878  0.00674055  0.60423886     1.00900
C90         C  0.91873242  0.07917476  0.71360240     1.13900
C91         C  0.07944891  0.06908126  0.70728355     1.04600
O92         O  0.09998830  0.97901432  0.71348132    -0.95000
O93         O  0.08254504  0.95258091  0.79396409    -0.90700
O94         O  0.04319007  0.92341138  0.82605309    -0.83900
C95         C  0.07268985  0.92757840  0.81411232     1.11300
O96         O  0.98897203  0.10448222  0.82447617    -0.97000
Zr97       Zr  0.99477712  0.04625122  0.83048826     1.88900
O98         O  0.99068621  0.97127577  0.89627338    -0.73600
O99         O  0.09857052  0.01835352  0.81454970    -0.52900
O100        O  0.04084531  0.07361455  0.86277243    -0.97500
O101        O  0.94726661  0.06200620  0.87133831    -0.54800
O102        O  0.99795608  0.02518767  0.90159341    -0.74100
C103        C  0.99412954  0.99736763  0.91815024     0.98200
O104        O  0.99023666  0.90470671  0.86069665    -0.62900
O105        O  0.88585822  0.99333843  0.70916782    -0.57700
O106        O  0.94131310  0.92534904  0.81430287    -0.94400
O107        O  0.90232125  0.95595888  0.78377846    -0.92900
O108        O  0.94277192  0.93970112  0.65694220    -0.93200
O109        O  0.98500798  0.89972472  0.69466289    -0.92000
C110        C  0.91214370  0.92984039  0.80117236     1.17100
H111        H  0.94643774  0.00739195  0.67102948     0.33000
H112        H  0.03542366  0.93453740  0.75120516     0.43900
H113        H  0.94499859  0.00003047  0.84973755     0.37400
H114        H  0.04068398  0.06666843  0.77143344     0.33900
H115        H  0.02809342  0.91729421  0.63600988     0.25700
H116        H  0.11975141  0.01207646  0.80259407     0.31600
H117        H  0.05559586  0.05607972  0.87152507     0.37500
H118        H  0.94958505  0.93301507  0.62800259     0.32000
H119        H  0.86647199  0.00372558  0.72139808     0.30800
H120        H  0.86890164  0.01467918  0.80286308     0.32500
H121        H  0.93473378  0.07631867  0.85235139     0.31500
H122        H  0.98061958  0.89501084  0.72506735     0.35500
H123        H  0.97162111  0.90678121  0.88025337     0.28200
H124        H  0.00970647  0.10111011  0.64400955     0.32500
H125        H  0.98981773  0.11284916  0.85406108     0.35300
H126        H  0.89079678  0.00632945  0.68356164     0.27900
H127        H  0.98389256  0.88777215  0.84001237     0.40800
H128        H  0.09215951  0.95728483  0.70559986     0.30800
H129        H  0.05072101  0.94632390  0.64695738     0.38500
H130        H  0.95540787  0.07618358  0.89442044     0.30300
H131        H  0.09823574  0.04212442  0.81258296     0.30400
H132        H  0.00494909  0.11702797  0.68911360     0.30600
Zr133      Zr  0.29739048  0.25273258  0.06831117     2.17500
O134        O  0.34839392  0.26243814  0.03192611    -0.51700
O135        O  0.28109685  0.25053338  0.99262679    -0.74900
O136        O  0.32912352  0.20227234  0.06281438    -0.81700
O137        O  0.29722953  0.34270461  0.10270184    -0.83500
O138        O  0.29957537  0.16333871  0.09492795    -0.79100
O139        O  0.32582344  0.30403897  0.06811880    -0.90700
O140        O  0.22652959  0.25090000  0.98689892    -0.76700
O141        O  0.25142918  0.21884435  0.06093186    -0.86200
O142        O  0.25164959  0.28767255  0.06404489    -0.85900
O143        O  0.29780432  0.22134640  0.13302801    -0.72600
O144        O  0.29572810  0.28375092  0.13335396    -0.84700
Zr145      Zr  0.20260222  0.25013460  0.18654533     2.26400
Zr146      Zr  0.25143937  0.18740674  0.12483487     2.06300
Zr147      Zr  0.24903397  0.31732739  0.12977343     2.10000
Zr148      Zr  0.20572493  0.25367643  0.05817975     1.78800
O149        O  0.26533131  0.35392754  0.18667357    -0.93600
O150        O  0.17715076  0.20929140  0.02392945    -0.41400
O151        O  0.20337453  0.28287597  0.12346791    -0.78000
O152        O  0.20400324  0.22045481  0.11996699    -0.96700
O153        O  0.24927486  0.21671943  0.19077943    -0.90000
O154        O  0.24772006  0.28562239  0.19355937    -0.92800
C155        C  0.25476252  0.25015319  0.97062893     1.00900
C156        C  0.32188843  0.33287327  0.08191641     1.13900
C157        C  0.32493197  0.17293513  0.07517582     1.04600
O158        O  0.23485662  0.14925017  0.06985764    -0.95000
O159        O  0.20589103  0.15967445  0.15515639    -0.90700
O160        O  0.17520469  0.19724855  0.18836743    -0.83900
C161        C  0.18040847  0.16828550  0.17502235     1.11300
O162        O  0.35308830  0.25164859  0.19143140    -0.97000
Zr163      Zr  0.29435457  0.25209354  0.19686058     1.88900
O164        O  0.21904230  0.25074366  0.26276662    -0.73600
O165        O  0.26843627  0.14466329  0.17302386    -0.52900
O166        O  0.31679092  0.20422032  0.23058875    -0.97500
O167        O  0.31863833  0.29848449  0.23243497    -0.54800
O168        O  0.27369640  0.24970859  0.26814341    -0.74100
C169        C  0.24554648  0.25004580  0.28460100     0.98200
O170        O  0.15113749  0.25197256  0.22411886    -0.62900
O171        O  0.23279591  0.36153513  0.08330443    -0.57700
O172        O  0.16957607  0.29964169  0.18411457    -0.94400
O173        O  0.19762360  0.33982249  0.15165352    -0.92900
O174        O  0.18657775  0.30298745  0.02471190    -0.93200
O175        O  0.14714762  0.25733496  0.06281888    -0.92000
C176        C  0.17248363  0.32883532  0.17057714     1.17100
H177        H  0.25340153  0.30190734  0.03981938     0.33000
H178        H  0.18475794  0.20795320  0.11491972     0.43900
H179        H  0.24558824  0.29906749  0.21855201     0.37400
H180        H  0.31754876  0.20956012  0.13741826     0.33900
H181        H  0.16961573  0.21802840  0.99624420     0.25700
H182        H  0.26731283  0.12479426  0.15558643     0.31600
H183        H  0.29787025  0.19192302  0.24088367     0.37500
H184        H  0.18319092  0.31810491  0.04873789     0.32000
H185        H  0.24205352  0.38105863  0.09677012     0.30800
H186        H  0.25710751  0.37521106  0.17761245     0.32500
H187        H  0.32367994  0.29101777  0.26170513     0.31500
H188        H  0.14306020  0.26829184  0.09036049     0.35500
H189        H  0.13489200  0.24325099  0.20389625     0.28200
H190        H  0.34985394  0.24567942  0.00954929     0.32500
H191        H  0.36122858  0.25131792  0.22118250     0.35300
H192        H  0.24529721  0.35872855  0.05669196     0.27900
H193        H  0.15276158  0.23571645  0.24709720     0.40800
H194        H  0.24560222  0.15650234  0.04338295     0.30800
H195        H  0.19426708  0.19374413  0.01623325     0.38500
H196        H  0.30083763  0.31405169  0.23627084     0.30300
H197        H  0.29181008  0.14834463  0.17767755     0.30400
H198        H  0.36538822  0.25697090  0.05299834     0.30600
Zr199      Zr  0.29623148  0.24760270  0.56669721     2.17500
O200        O  0.34893764  0.25111317  0.53237298    -0.51700
O201        O  0.27837279  0.24689736  0.49126305    -0.74900
O202        O  0.32386159  0.19497607  0.56161213    -0.81700
O203        O  0.30208862  0.33680491  0.60232101    -0.83500
O204        O  0.29425591  0.15734474  0.59693988    -0.79100
O205        O  0.32764772  0.29772192  0.56430150    -0.90700
O206        O  0.22397654  0.25273632  0.48812678    -0.76700
O207        O  0.24853087  0.21559575  0.56217729    -0.86200
O208        O  0.25207685  0.28456463  0.56400444    -0.85900
O209        O  0.29594453  0.21677587  0.63193483    -0.72600
O210        O  0.29764188  0.27883979  0.63146393    -0.84700
Zr211      Zr  0.20466454  0.24927711  0.68973138     2.26400
Zr212      Zr  0.24787289  0.18450711  0.62666975     2.06300
Zr213      Zr  0.25240439  0.31429539  0.62971525     2.10000
Zr214      Zr  0.20453706  0.25267158  0.56068286     1.78800
O215        O  0.26909895  0.35290028  0.68406333    -0.93600
O216        O  0.17525297  0.20945225  0.52493181    -0.41400
O217        O  0.20506221  0.28175637  0.62623240    -0.78000
O218        O  0.20231572  0.21982642  0.62317635    -0.96700
O219        O  0.24987400  0.21414864  0.69231326    -0.90000
O220        O  0.25125402  0.28313657  0.69412724    -0.92800
C221        C  0.25158711  0.24957385  0.47040782     1.00900
C222        C  0.32560581  0.32641941  0.57966320     1.13900
C223        C  0.31911004  0.16620712  0.57572236     1.04600
O224        O  0.22697715  0.14692290  0.57355708    -0.95000
O225        O  0.20087203  0.15995148  0.65928075    -0.90700
O226        O  0.17335103  0.19865431  0.69468844    -0.83900
C227        C  0.17655842  0.16944775  0.68133689     1.11300
O228        O  0.35522867  0.24850393  0.69040794    -0.97000
Zr229      Zr  0.29648345  0.24793444  0.69547448     1.88900
O230        O  0.22350581  0.24907541  0.76465852    -0.73600
O231        O  0.26376156  0.14179616  0.67555821    -0.52900
O232        O  0.31988470  0.19902492  0.72522609    -0.97500
O233        O  0.32165964  0.29532331  0.72737491    -0.54800
O234        O  0.27810161  0.24648813  0.76784987    -0.74100
C235        C  0.25037290  0.24755378  0.78541257     0.98200
O236        O  0.15642648  0.24808456  0.73379557    -0.62900
O237        O  0.23654822  0.35712407  0.58080106    -0.57700
O238        O  0.17448006  0.30030365  0.68917193    -0.94400
O239        O  0.20301021  0.33894988  0.65441156    -0.92900
O240        O  0.18348687  0.30360853  0.53399473    -0.93200
O241        O  0.14609056  0.25677997  0.56674032    -0.92000
C242        C  0.17819009  0.32912938  0.67500563     1.17100
H243        H  0.25386260  0.29867319  0.53965970     0.33000
H244        H  0.18227492  0.20831078  0.61951942     0.43900
H245        H  0.25053529  0.29688889  0.71898958     0.37400
H246        H  0.31524903  0.20422761  0.63593884     0.33900
H247        H  0.16728360  0.21907344  0.49798606     0.25700
H248        H  0.26326812  0.12190481  0.65812653     0.31600
H249        H  0.32746296  0.20509824  0.75414642     0.37500
H250        H  0.19457682  0.30728926  0.50649582     0.32000
H251        H  0.24315280  0.37727299  0.59530955     0.30800
H252        H  0.26289084  0.37414545  0.67241159     0.32500
H253        H  0.30948800  0.29962808  0.75389220     0.31500
H254        H  0.14232703  0.26221241  0.59710819     0.35500
H255        H  0.16123997  0.26173424  0.75888233     0.28200
H256        H  0.34791400  0.23631877  0.50762406     0.32500
H257        H  0.36328821  0.24789933  0.72019550     0.35300
H258        H  0.25131919  0.35538248  0.55614232     0.27900
H259        H  0.13895732  0.25919890  0.71801431     0.40800
H260        H  0.24050262  0.15028981  0.54794440     0.30800
H261        H  0.19218968  0.19413009  0.51587120     0.38500
H262        H  0.31564443  0.31318157  0.70811710     0.30300
H263        H  0.28695737  0.14566316  0.68140860     0.30400
H264        H  0.36444449  0.24106219  0.55245904     0.30600
Zr265      Zr  0.29470651  0.74920477  0.43697486     2.17500
O266        O  0.34786378  0.74440691  0.47030290    -0.51700
O267        O  0.27713561  0.75108044  0.51211676    -0.74900
O268        O  0.32272186  0.80124334  0.44519749    -0.81700
O269        O  0.29835096  0.66026720  0.39932598    -0.83500
O270        O  0.29217079  0.84015184  0.41461816    -0.79100
O271        O  0.32458129  0.69820417  0.43899037    -0.90700
O272        O  0.22258221  0.75101556  0.51539121    -0.76700
O273        O  0.24803501  0.78232890  0.44181427    -0.86200
O274        O  0.24950714  0.71342956  0.43975230    -0.85900
O275        O  0.29539753  0.78100003  0.37254553    -0.72600
O276        O  0.29490708  0.71850396  0.37179496    -0.84700
Zr277      Zr  0.20234101  0.75015234  0.31439483     2.26400
Zr278      Zr  0.24804822  0.81373098  0.37767766     2.06300
Zr279      Zr  0.24875526  0.68406496  0.37381802     2.10000
Zr280      Zr  0.20292621  0.74660687  0.44327864     1.78800
O281        O  0.26498390  0.64378732  0.32158983    -0.93600
O282        O  0.17292791  0.79198273  0.47226182    -0.41400
O283        O  0.20206872  0.71734742  0.37767619    -0.78000
O284        O  0.20140082  0.77942575  0.38094039    -0.96700
O285        O  0.24828387  0.78462089  0.31156239    -0.90000
O286        O  0.24829003  0.71573314  0.31017054    -0.92800
C287        C  0.25042799  0.75169061  0.53311254     1.00900
C288        C  0.32193703  0.66981508  0.42277672     1.13900
C289        C  0.31717778  0.83082999  0.43526546     1.04600
O290        O  0.22569966  0.85490391  0.42435307    -0.95000
O291        O  0.20234309  0.84016224  0.34560828    -0.90700
O292        O  0.17404749  0.80241080  0.30838446    -0.83900
C293        C  0.17813299  0.83116860  0.32302252     1.11300
O294        O  0.35279413  0.75461059  0.31487704    -0.97000
Zr295      Zr  0.29426818  0.75011307  0.30837260     1.88900
O296        O  0.22040236  0.74956049  0.23948110    -0.73600
O297        O  0.27023690  0.85266546  0.32765405    -0.52900
O298        O  0.31528110  0.79731632  0.27159776    -0.97500
O299        O  0.32130031  0.70292135  0.27910028    -0.54800
O300        O  0.27502247  0.74668638  0.23620396    -0.74100
C301        C  0.24714256  0.74775490  0.21868567     0.98200
O302        O  0.14882015  0.74609208  0.28198145    -0.62900
O303        O  0.23163122  0.64387112  0.42559822    -0.57700
O304        O  0.17305957  0.69911340  0.30784833    -0.94400
O305        O  0.20059667  0.66000420  0.34325961    -0.92900
O306        O  0.18402591  0.69779464  0.47824279    -0.93200
O307        O  0.14474422  0.73843007  0.44008630    -0.92000
C308        C  0.17670938  0.66994359  0.32067039     1.17100
H309        H  0.25106937  0.69918245  0.46401344     0.33000
H310        H  0.18171468  0.79150554  0.38429176     0.43900
H311        H  0.24705008  0.70187026  0.28544761     0.37400
H312        H  0.31467802  0.79385824  0.36984727     0.33900
H313        H  0.16891740  0.78633675  0.50247296     0.25700
H314        H  0.26486898  0.87389024  0.34013073     0.31600
H315        H  0.29601380  0.80845065  0.26008102     0.37500
H316        H  0.17652129  0.70491159  0.50670288     0.32000
H317        H  0.20779825  0.64560174  0.42640267     0.30800
H318        H  0.25992949  0.62288057  0.33513358     0.32500
H319        H  0.30391983  0.68985240  0.26591803     0.31500
H320        H  0.13868696  0.74439055  0.41053802     0.35500
H321        H  0.13372107  0.75643385  0.30222515     0.28200
H322        H  0.34822889  0.76006144  0.49413917     0.32500
H323        H  0.36111755  0.75359941  0.28531504     0.35300
H324        H  0.23580433  0.62293837  0.41156081     0.27900
H325        H  0.14916560  0.76028747  0.25667615     0.40800
H326        H  0.23366819  0.84937017  0.45324888     0.30800
H327        H  0.18881721  0.80976258  0.47360806     0.38500
H328        H  0.32817329  0.69032937  0.30435012     0.30300
H329        H  0.29396335  0.85088263  0.33084568     0.30400
H330        H  0.36332492  0.75304760  0.44914972     0.30600
Zr331      Zr  0.29648493  0.75212650  0.93760278     2.17500
O332        O  0.35018158  0.75032800  0.96930646    -0.51700
O333        O  0.28009880  0.74859760  0.01302606    -0.74900
O334        O  0.32264410  0.80493728  0.94821021    -0.81700
O335        O  0.30163415  0.66574984  0.89824997    -0.83500
O336        O  0.29418699  0.84382549  0.91381949    -0.79100
O337        O  0.32848116  0.70222191  0.93875641    -0.90700
O338        O  0.22544571  0.74597846  0.01669973    -0.76700
O339        O  0.24961891  0.78485725  0.94452804    -0.86200
O340        O  0.25150272  0.71610114  0.94005216    -0.85900
O341        O  0.29572217  0.78497624  0.87408119    -0.72600
O342        O  0.29672925  0.72282874  0.87128927    -0.84700
Zr343      Zr  0.20254005  0.75418229  0.81705626     2.26400
Zr344      Zr  0.24816190  0.81742874  0.88151122     2.06300
Zr345      Zr  0.25103220  0.68795104  0.87332943     2.10000
Zr346      Zr  0.20467291  0.74894115  0.94541801     1.78800
O347        O  0.26752878  0.65020005  0.81800229    -0.93600
O348        O  0.18117663  0.79455368  0.98316500    -0.41400
O349        O  0.20366175  0.72035936  0.87936534    -0.78000
O350        O  0.20219110  0.78252414  0.88429851    -0.96700
O351        O  0.24794205  0.78937201  0.81461080    -0.90000
O352        O  0.24884209  0.72044819  0.81036303    -0.92800
C353        C  0.25342810  0.74672679  0.03391734     1.00900
C354        C  0.32574362  0.67415070  0.92165379     1.13900
C355        C  0.31840747  0.83416940  0.93588080     1.04600
O356        O  0.22771706  0.85517268  0.93449690    -0.95000
O357        O  0.20055971  0.84261825  0.85213453    -0.90700
O358        O  0.17281702  0.80542736  0.81362838    -0.83900
C359        C  0.17646621  0.83399953  0.82906469     1.11300
O360        O  0.35297965  0.75763569  0.81264281    -0.97000
Zr361      Zr  0.29419960  0.75554689  0.80876365     1.88900
O362        O  0.21894928  0.75380324  0.74119612    -0.73600
O363        O  0.26528008  0.85952063  0.83254320    -0.52900
O364        O  0.31505903  0.80438151  0.77579194    -0.97500
O365        O  0.31990560  0.70939623  0.77483902    -0.54800
O366        O  0.27348302  0.75540563  0.73701058    -0.74100
C367        C  0.24546749  0.75453085  0.71974030     0.98200
O368        O  0.14953912  0.75839514  0.78315664    -0.62900
O369        O  0.23636304  0.64398568  0.92098260    -0.57700
O370        O  0.17330249  0.70283058  0.81418661    -0.94400
O371        O  0.20264820  0.66296980  0.84547503    -0.92900
O372        O  0.17892820  0.70064947  0.97325108    -0.93200
O373        O  0.14592279  0.75012123  0.94203139    -0.92000
C374        C  0.17764958  0.67346348  0.82573756     1.17100
H375        H  0.25343920  0.70138625  0.96373798     0.33000
H376        H  0.18231934  0.79405514  0.88881537     0.43900
H377        H  0.24745399  0.70703146  0.78522796     0.37400
H378        H  0.31504733  0.79775010  0.87133163     0.33900
H379        H  0.17218832  0.78532766  0.00972283     0.25700
H380        H  0.26630759  0.87929260  0.85016138     0.31600
H381        H  0.29625426  0.81418331  0.76118708     0.37500
H382        H  0.19687081  0.68566057  0.97953347     0.32000
H383        H  0.24315118  0.62426540  0.90570776     0.30800
H384        H  0.27454539  0.63070199  0.83358300     0.32500
H385        H  0.30284204  0.69919665  0.75720732     0.31500
H386        H  0.14080780  0.74918590  0.91115405     0.35500
H387        H  0.14888756  0.74155869  0.76078250     0.28200
H388        H  0.34844526  0.76101630  0.99741373     0.32500
H389        H  0.36038688  0.75925007  0.78270223     0.35300
H390        H  0.25142459  0.64552773  0.94550825     0.27900
H391        H  0.13384332  0.75123221  0.80496910     0.40800
H392        H  0.24063814  0.85110225  0.96058761     0.30800
H393        H  0.19986197  0.80754633  0.99289191     0.38500
H394        H  0.32372060  0.69396188  0.79836300     0.30300
H395        H  0.28810525  0.85447363  0.82613548     0.30400
H396        H  0.36451624  0.76413842  0.95192309     0.30600
Zr397      Zr  0.50144060  0.94954632  0.95484734     2.17500
O398        O  0.50495120  0.89526070  0.92534940    -0.51700
O399        O  0.50191836  0.96539306  0.87904968    -0.74900
O400        O  0.44844041  0.92334245  0.94557486    -0.81700
O401        O  0.59066124  0.94506094  0.99011329    -0.83500
O402        O  0.40986320  0.95387446  0.97756870    -0.79100
O403        O  0.55200186  0.91904416  0.95157564    -0.90700
O404        O  0.50401248  0.01984315  0.87447375    -0.76700
O405        O  0.46928861  0.99670262  0.94772919    -0.86200
O406        O  0.53828495  0.99369885  0.95155128    -0.85900
O407        O  0.46901440  0.95092663  0.01875765    -0.72600
O408        O  0.53129517  0.94925983  0.02104012    -0.84700
Zr409      Zr  0.50121360  0.04411182  0.07433856     2.26400
Zr410      Zr  0.43711362  0.99868007  0.01114566     2.06300
Zr411      Zr  0.56701884  0.99423995  0.01812513     2.10000
Zr412      Zr  0.50608056  0.04085236  0.94579377     1.78800
O413        O  0.60343456  0.97652115  0.07453606    -0.93600
O414        O  0.46155617  0.06921767  0.91149500    -0.41400
O415        O  0.53470695  0.04159115  0.01182305    -0.78000
O416        O  0.47243887  0.04430121  0.00715324    -0.96700
O417        O  0.46561230  0.99921676  0.07769744    -0.90000
O418        O  0.53470866  0.99748395  0.08149876    -0.92800
C419        C  0.50273649  0.99185375  0.85769547     1.00900
C420        C  0.58074261  0.92142591  0.96710381     1.13900
C421        C  0.41910029  0.92899090  0.95682565     1.04600
O422        O  0.39714510  0.01950269  0.96116035    -0.95000
O423        O  0.41150209  0.04557904  0.04116056    -0.90700
O424        O  0.44958193  0.07416140  0.07705840    -0.83900
C425        C  0.42044672  0.07004787  0.06306688     1.11300
O426        O  0.49544750  0.89414573  0.07997957    -0.97000
Zr427      Zr  0.49882968  0.95266378  0.08400461     1.88900
O428        O  0.50131739  0.02809087  0.15027193    -0.73600
O429        O  0.39743647  0.97905301  0.06207409    -0.52900
O430        O  0.44952263  0.93287559  0.11721506    -0.97500
O431        O  0.54409569  0.92593310  0.11909816    -0.54800
O432        O  0.49718025  0.97379743  0.15566369    -0.74100
C433        C  0.49907771  0.00191144  0.17211997     0.98200
O434        O  0.49768942  0.09598646  0.11061477    -0.62900
O435        O  0.61203914  0.01000871  0.97271042    -0.57700
O436        O  0.55285187  0.07366219  0.07449282    -0.94400
O437        O  0.59163500  0.04394411  0.04154085    -0.92900
O438        O  0.55618252  0.06045481  0.91458852    -0.93200
O439        O  0.51202357  0.09915108  0.94784796    -0.92000
C440        C  0.58183511  0.06929541  0.06084289     1.17100
H441        H  0.55281547  0.99151953  0.92767638     0.33000
H442        H  0.46079779  0.06407259  0.00255268     0.43900
H443        H  0.54819462  0.99891387  0.10664025     0.37400
H444        H  0.45583293  0.93193396  0.02178685     0.33900
H445        H  0.47069920  0.07769013  0.88459013     0.25700
H446        H  0.37644821  0.98103910  0.04709860     0.31600
H447        H  0.43903192  0.95216003  0.12950134     0.37500
H448        H  0.55063166  0.06557046  0.88458939     0.32000
H449        H  0.63146477  0.00156874  0.98739851     0.30800
H450        H  0.62296105  0.99005237  0.07130976     0.32500
H451        H  0.53678892  0.92211673  0.14871961     0.31500
H452        H  0.52283569  0.10361644  0.97547668     0.35500
H453        H  0.51353460  0.09503298  0.13428739     0.28200
H454        H  0.49155205  0.89538461  0.89910602     0.32500
H455        H  0.49255180  0.88670226  0.10973445     0.35300
H456        H  0.61003148  0.99671658  0.94659289     0.27900
H457        H  0.50647073  0.11208833  0.09046590     0.40800
H458        H  0.40469554  0.01246735  0.93269487     0.30800
H459        H  0.44650788  0.05203821  0.90220329     0.38500
H460        H  0.56107249  0.94256761  0.12188927     0.30300
H461        H  0.40124865  0.95557761  0.06368223     0.30400
H462        H  0.49330637  0.88115151  0.94559121     0.30600
Zr463      Zr  0.50006746  0.95342738  0.45301082     2.17500
O464        O  0.50930841  0.90554100  0.40983689    -0.51700
O465        O  0.49849337  0.97217218  0.37830870    -0.74900
O466        O  0.44858543  0.92312990  0.44615742    -0.81700
O467        O  0.58955815  0.94944882  0.49063559    -0.83500
O468        O  0.41003723  0.95107119  0.48132341    -0.79100
O469        O  0.55054927  0.92276301  0.45338841    -0.90700
O470        O  0.50194226  0.02656565  0.37531652    -0.76700
O471        O  0.46550047  0.99905218  0.45043717    -0.86200
O472        O  0.53501060  0.99922193  0.45011001    -0.85900
O473        O  0.46991893  0.95064117  0.51874852    -0.72600
O474        O  0.53210965  0.95328060  0.51729021    -0.84700
Zr475      Zr  0.49892160  0.04408568  0.57719920     2.26400
Zr476      Zr  0.43542754  0.99682415  0.51579589     2.06300
Zr477      Zr  0.56580670  0.99969588  0.51509594     2.10000
Zr478      Zr  0.50044267  0.04478608  0.44829659     1.78800
O479        O  0.60987234  0.98567748  0.56317859    -0.93600
O480        O  0.45394667  0.06956175  0.41362884    -0.41400
O481        O  0.53083646  0.04516585  0.51310572    -0.78000
O482        O  0.46837543  0.04438028  0.51124465    -0.96700
O483        O  0.46606357  0.99707546  0.58074361    -0.90000
O484        O  0.53522122  0.99938348  0.57994726    -0.92800
C485        C  0.49991743  0.99890063  0.35763384     1.00900
C486        C  0.57937040  0.92543466  0.46850880     1.13900
C487        C  0.41924251  0.92674511  0.45917724     1.04600
O488        O  0.38941414  0.01168390  0.47150592    -0.95000
O489        O  0.40837065  0.04330190  0.54516033    -0.90700
O490        O  0.44599988  0.07170284  0.58267487    -0.83900
C491        C  0.41719226  0.06758423  0.56767530     1.11300
O492        O  0.50584966  0.89419845  0.57428828    -0.97000
Zr493      Zr  0.50227094  0.95245956  0.58208279     1.88900
O494        O  0.49943496  0.02543995  0.65220966    -0.73600
O495        O  0.40188589  0.97527617  0.57278191    -0.52900
O496        O  0.45701341  0.92634596  0.61760177    -0.97500
O497        O  0.55201647  0.93131787  0.61304704    -0.54800
O498        O  0.50167570  0.97093522  0.65471456    -0.74100
C499        C  0.50054099  0.99852471  0.67266563     0.98200
O500        O  0.50271110  0.09586804  0.61364665    -0.62900
O501        O  0.60365036  0.01885497  0.46121312    -0.57700
O502        O  0.54884849  0.07619063  0.57916294    -0.94400
O503        O  0.58850127  0.04854740  0.54497366    -0.92900
O504        O  0.54820727  0.06996848  0.41779627    -0.93200
O505        O  0.50081329  0.10304135  0.45709753    -0.92000
C506        C  0.57802822  0.07301684  0.56568954     1.17100
H507        H  0.54895144  0.99831311  0.42548480     0.33000
H508        H  0.45592552  0.06374629  0.50755788     0.43900
H509        H  0.54939896  0.00084772  0.60443186     0.37400
H510        H  0.45808526  0.93078613  0.52156325     0.33900
H511        H  0.46308720  0.08179080  0.38939678     0.25700
H512        H  0.38047999  0.98535156  0.56841262     0.31600
H513        H  0.44433333  0.91600388  0.59450944     0.37500
H514        H  0.56198833  0.07547225  0.44266194     0.32000
H515        H  0.61899751  0.03302392  0.47662800     0.30800
H516        H  0.62963149  0.98854319  0.54588471     0.32500
H517        H  0.55736180  0.94572924  0.63724491     0.31500
H518        H  0.50921747  0.10658171  0.48636860     0.35500
H519        H  0.49176175  0.11164532  0.59488647     0.28200
H520        H  0.49392347  0.90710318  0.38570046     0.32500
H521        H  0.50684480  0.88565599  0.60375069     0.35300
H522        H  0.61665498  0.99979708  0.45335683     0.27900
H523        H  0.48878110  0.09402065  0.63908989     0.40800
H524        H  0.39820241  0.02749387  0.45098483     0.30800
H525        H  0.44218624  0.05146642  0.40005262     0.38500
H526        H  0.56872112  0.93613057  0.59148718     0.30300
H527        H  0.39851748  0.95236698  0.56528911     0.30400
H528        H  0.50170976  0.88718899  0.42719319     0.30600
Zr529      Zr  0.70247298  0.75137302  0.43640151     2.17500
O530        O  0.65293717  0.75894008  0.47685344    -0.51700
O531        O  0.71982578  0.75035148  0.51184093    -0.74900
O532        O  0.67134902  0.69998714  0.43912042    -0.81700
O533        O  0.69965168  0.84145478  0.40335614    -0.83500
O534        O  0.70167481  0.66207683  0.40655943    -0.79100
O535        O  0.67236290  0.80181986  0.43812723    -0.90700
O536        O  0.77436620  0.75408188  0.51591091    -0.76700
O537        O  0.74882748  0.71772229  0.44102082    -0.86200
O538        O  0.74809651  0.78662515  0.44123575    -0.85900
O539        O  0.70158232  0.72191992  0.36994322    -0.72600
O540        O  0.70319950  0.78417172  0.37298452    -0.84700
Zr541      Zr  0.79524623  0.75265465  0.31570007     2.26400
Zr542      Zr  0.74822753  0.68806778  0.37537004     2.06300
Zr543      Zr  0.74965011  0.81817839  0.37722361     2.10000
Zr544      Zr  0.79438432  0.75306931  0.44413251     1.78800
O545        O  0.73504297  0.86014661  0.32654843    -0.93600
O546        O  0.82058428  0.70789212  0.47953603    -0.41400
O547        O  0.79588941  0.78396502  0.38021087    -0.78000
O548        O  0.79531053  0.72142705  0.38057609    -0.96700
O549        O  0.74867766  0.71916901  0.31105677    -0.90000
O550        O  0.75023691  0.78842060  0.31145218    -0.92800
C551        C  0.74647174  0.75229230  0.53303815     1.00900
C552        C  0.67544622  0.83085376  0.42466266     1.13900
C553        C  0.67591203  0.67082327  0.42598040     1.04600
O554        O  0.76858753  0.64873392  0.42630743    -0.95000
O555        O  0.79287177  0.66204903  0.33982809    -0.90700
O556        O  0.82200811  0.70060674  0.30616496    -0.83900
C557        C  0.81702743  0.67125514  0.31754582     1.11300
O558        O  0.64507865  0.75751856  0.31300141    -0.97000
Zr559      Zr  0.70373585  0.75478960  0.30756805     1.88900
O560        O  0.77866935  0.75331822  0.24018765    -0.73600
O561        O  0.72817974  0.64680351  0.32669948    -0.52900
O562        O  0.67685811  0.71056676  0.27047357    -0.97500
O563        O  0.68330577  0.80439377  0.27606294    -0.54800
O564        O  0.72408704  0.75158136  0.23586419    -0.74100
C565        C  0.75209102  0.75199414  0.21879793     0.98200
O566        O  0.84928774  0.74647459  0.28594574    -0.62900
O567        O  0.76604503  0.85829960  0.42998205    -0.57700
O568        O  0.82589827  0.80334268  0.31305090    -0.94400
O569        O  0.80041334  0.84120081  0.35314112    -0.92900
O570        O  0.81677941  0.80253901  0.47386636    -0.93200
O571        O  0.85313345  0.75354431  0.44088213    -0.92000
C572        C  0.82391735  0.83160378  0.32971461     1.17100
H573        H  0.74662436  0.80026558  0.46612821     0.33000
H574        H  0.81466829  0.70870438  0.38332000     0.43900
H575        H  0.75201360  0.80260082  0.28716715     0.37400
H576        H  0.68194047  0.70990022  0.36567135     0.33900
H577        H  0.82793584  0.71651292  0.50741574     0.25700
H578        H  0.72698351  0.62694559  0.34405308     0.31600
H579        H  0.66846841  0.69634389  0.29319417     0.37500
H580        H  0.82014813  0.81679008  0.44897052     0.32000
H581        H  0.76215573  0.87927820  0.41596753     0.30800
H582        H  0.74183389  0.88049565  0.34039542     0.32500
H583        H  0.69832712  0.80958309  0.25254718     0.31500
H584        H  0.85807236  0.75454455  0.41001023     0.35500
H585        H  0.85053774  0.76145411  0.26151630     0.28200
H586        H  0.65377548  0.74274070  0.49993377     0.32500
H587        H  0.63712545  0.76040660  0.28340692     0.35300
H588        H  0.74964702  0.85726597  0.45284947     0.27900
H589        H  0.86437137  0.75527886  0.30762835     0.40800
H590        H  0.79237847  0.65088568  0.42510902     0.30800
H591        H  0.80273511  0.69303538  0.48679658     0.38500
H592        H  0.68757172  0.82107762  0.29791776     0.30300
H593        H  0.70538091  0.65263783  0.32117605     0.30400
H594        H  0.63517451  0.75194812  0.45777432     0.30600
Zr595      Zr  0.70299579  0.74366920  0.93613667     2.17500
O596        O  0.64920761  0.74746639  0.96720771    -0.51700
O597        O  0.72034745  0.74408948  0.01182207    -0.74900
O598        O  0.67614549  0.69054410  0.94209445    -0.81700
O599        O  0.69882443  0.83382106  0.90452087    -0.83500
O600        O  0.70616041  0.65294401  0.90734639    -0.79100
O601        O  0.67217882  0.79411407  0.93998239    -0.90700
O602        O  0.77472879  0.74944076  0.01556897    -0.76700
O603        O  0.75020056  0.71118686  0.94120584    -0.86200
O604        O  0.74752069  0.78016725  0.93986481    -0.85900
O605        O  0.70386753  0.71263059  0.87092421    -0.72600
O606        O  0.70205895  0.77485884  0.87134381    -0.84700
Zr607      Zr  0.79620695  0.74649275  0.81540106     2.26400
Zr608      Zr  0.75187117  0.68050984  0.87636968     2.06300
Zr609      Zr  0.74731072  0.81048198  0.87484745     2.10000
Zr610      Zr  0.79464332  0.74757553  0.94395167     1.78800
O611        O  0.72790102  0.84773192  0.82062400    -0.93600
O612        O  0.81683314  0.69996806  0.97859832    -0.41400
O613        O  0.79471275  0.77824190  0.87963334    -0.78000
O614        O  0.79761216  0.71584710  0.88084021    -0.96700
O615        O  0.75146813  0.71060534  0.81108435    -0.90000
O616        O  0.74923714  0.77958127  0.81045227    -0.92800
C617        C  0.74700823  0.74690888  0.03296914     1.00900
C618        C  0.67496735  0.82322000  0.92634792     1.13900
C619        C  0.68117963  0.66164039  0.92847883     1.04600
O620        O  0.77256008  0.64203245  0.92829760    -0.95000
O621        O  0.79883210  0.65576875  0.84456720    -0.90700
O622        O  0.82531047  0.69495850  0.80785006    -0.83900
C623        C  0.82231921  0.66590505  0.82170426     1.11300
O624        O  0.64605179  0.73631022  0.80924011    -0.97000
Zr625      Zr  0.70448995  0.74357522  0.80724314     1.88900
O626        O  0.77877652  0.74834031  0.73982306    -0.73600
O627        O  0.73409279  0.63964177  0.82563156    -0.52900
O628        O  0.68837216  0.69355250  0.77231495    -0.97500
O629        O  0.67336616  0.78803793  0.77756174    -0.54800
O630        O  0.72410144  0.74848827  0.73554522    -0.74100
C631        C  0.75206056  0.74912312  0.71848023     0.98200
O632        O  0.84987079  0.75254885  0.78440277    -0.62900
O633        O  0.76496742  0.85396483  0.92180358    -0.57700
O634        O  0.82547452  0.79774737  0.81441063    -0.94400
O635        O  0.79537587  0.83621729  0.84738435    -0.92900
O636        O  0.81995966  0.79382920  0.97828710    -0.93200
O637        O  0.85330468  0.74866894  0.93907712    -0.92000
C638        C  0.82058457  0.82669929  0.82741340     1.17100
H639        H  0.74558146  0.79420482  0.96430246     0.33000
H640        H  0.81760091  0.70426233  0.88430764     0.43900
H641        H  0.75013638  0.79365674  0.78598189     0.37400
H642        H  0.68468452  0.69979276  0.86707532     0.33900
H643        H  0.82922588  0.70841595  0.00327907     0.25700
H644        H  0.73634400  0.61902139  0.84114321     0.31600
H645        H  0.70809214  0.68545011  0.75814407     0.37500
H646        H  0.80205837  0.80894081  0.98416121     0.32000
H647        H  0.75499082  0.87359102  0.90970680     0.30800
H648        H  0.72838269  0.86908469  0.83465448     0.32500
H649        H  0.66960817  0.78221086  0.74728857     0.31500
H650        H  0.85779613  0.74775685  0.90808250     0.35500
H651        H  0.86505489  0.74364211  0.80583830     0.28200
H652        H  0.64989309  0.73425749  0.99340920     0.32500
H653        H  0.63930988  0.73238859  0.77931515     0.35300
H654        H  0.75350781  0.85049716  0.94907755     0.27900
H655        H  0.85076602  0.73744796  0.75998581     0.40800
H656        H  0.79636854  0.64362731  0.92640019     0.30800
H657        H  0.79803747  0.68900594  0.99156970     0.38500
H658        H  0.68869004  0.80629344  0.77641335     0.30300
H659        H  0.71049680  0.64283347  0.82282882     0.30400
H660        H  0.63458655  0.73579597  0.94744274     0.30600
Zr661      Zr  0.70623398  0.24687873  0.05436114     2.17500
O662        O  0.65558147  0.24223567  0.01473112    -0.51700
O663        O  0.72516794  0.24620837  0.97971718    -0.74900
O664        O  0.67700970  0.29833562  0.04703848    -0.81700
O665        O  0.70454036  0.15841492  0.09083873    -0.83500
O666        O  0.70512065  0.33761781  0.08116297    -0.79100
O667        O  0.67591166  0.19608708  0.05412557    -0.90700
O668        O  0.77988088  0.24678222  0.97844355    -0.76700
O669        O  0.75146430  0.28224966  0.05289429    -0.86200
O670        O  0.75298804  0.21320485  0.05192564    -0.85900
O671        O  0.70284611  0.27743634  0.11996185    -0.72600
O672        O  0.70635111  0.21518943  0.11853956    -0.84700
Zr673      Zr  0.79601707  0.25016085  0.18046878     2.26400
Zr674      Zr  0.74902339  0.31224754  0.11826999     2.06300
Zr675      Zr  0.75376712  0.18287327  0.11695780     2.10000
Zr676      Zr  0.79805883  0.24858923  0.05141988     1.78800
O677        O  0.73739362  0.14017849  0.16546885    -0.93600
O678        O  0.82136317  0.29522305  0.01577947    -0.41400
O679        O  0.79921079  0.21834598  0.11622840    -0.78000
O680        O  0.79703064  0.28040026  0.11470799    -0.96700
O681        O  0.74835908  0.28193077  0.18297946    -0.90000
O682        O  0.75159246  0.21332081  0.18198813    -0.92800
C683        C  0.75236925  0.24624658  0.95985852     1.00900
C684        C  0.67982782  0.16757880  0.06931311     1.13900
C685        C  0.68119220  0.32778972  0.05885059     1.04600
O686        O  0.76965574  0.35544004  0.07363450    -0.95000
O687        O  0.79308960  0.34013982  0.15257158    -0.90700
O688        O  0.82429211  0.30264041  0.18510557    -0.83900
C689        C  0.81875331  0.33172933  0.17259852     1.11300
O690        O  0.64569280  0.24173574  0.17192728    -0.97000
Zr691      Zr  0.70390561  0.24536074  0.18308423     1.88900
O692        O  0.77587994  0.25057891  0.25440396    -0.73600
O693        O  0.72488369  0.34885783  0.16987558    -0.52900
O694        O  0.67773333  0.29172974  0.21565988    -0.97500
O695        O  0.67970642  0.19764328  0.21514709    -0.54800
O696        O  0.72136634  0.24621755  0.25625619    -0.74100
C697        C  0.74886981  0.24898975  0.27451363     0.98200
O698        O  0.84362109  0.25216792  0.22657889    -0.62900
O699        O  0.77271549  0.14379473  0.06460915    -0.57700
O700        O  0.82834719  0.20065019  0.18220422    -0.94400
O701        O  0.80217472  0.16000308  0.14785318    -0.92900
O702        O  0.82395845  0.19972011  0.02575091    -0.93200
O703        O  0.85668098  0.25225711  0.05543686    -0.92000
C704        C  0.82604605  0.17136662  0.16922952     1.17100
H705        H  0.75262863  0.19916657  0.02733250     0.33000
H706        H  0.81612698  0.29337983  0.11128110     0.43900
H707        H  0.75291722  0.19926526  0.20646253     0.37400
H708        H  0.68295321  0.28932788  0.12238503     0.33900
H709        H  0.83015766  0.28682765  0.98860789     0.25700
H710        H  0.72941452  0.37061113  0.15850133     0.31600
H711        H  0.69523488  0.30335448  0.23082841     0.37500
H712        H  0.82903915  0.20411657  0.99546279     0.32000
H713        H  0.77538121  0.12357455  0.08090762     0.30800
H714        H  0.74003615  0.12006966  0.14886566     0.32500
H715        H  0.69648463  0.18877172  0.23437482     0.31500
H716        H  0.86225214  0.24289700  0.08355191     0.35500
H717        H  0.84085418  0.23477231  0.24783617     0.28200
H718        H  0.65729715  0.25749229  0.99059435     0.32500
H719        H  0.63598617  0.24396472  0.20061460     0.35300
H720        H  0.75404089  0.13959480  0.04558005     0.27900
H721        H  0.86212373  0.24537649  0.20878525     0.40800
H722        H  0.79185186  0.34872183  0.06615347     0.30800
H723        H  0.80257642  0.30839962  0.00703602     0.38500
H724        H  0.67821053  0.18187056  0.19150211     0.30300
H725        H  0.70128261  0.34610021  0.16624022     0.30400
H726        H  0.63867053  0.25129852  0.03349954     0.30600
Zr727      Zr  0.70331732  0.25047072  0.55811771     2.17500
O728        O  0.65120167  0.24483831  0.52214440    -0.51700
O729        O  0.71834217  0.24870507  0.48203256    -0.74900
O730        O  0.67402622  0.30144809  0.55076542    -0.81700
O731        O  0.70173366  0.16216185  0.59852797    -0.83500
O732        O  0.70344449  0.34161890  0.58154767    -0.79100
O733        O  0.67230327  0.20005868  0.56339010    -0.90700
O734        O  0.77260992  0.25399086  0.47624105    -0.76700
O735        O  0.74862054  0.28551750  0.55084891    -0.86200
O736        O  0.74950637  0.21643037  0.55277328    -0.85900
O737        O  0.70393297  0.28296802  0.62232097    -0.72600
O738        O  0.70576382  0.22062199  0.62357227    -0.84700
Zr739      Zr  0.79860210  0.25507901  0.67606006     2.26400
Zr740      Zr  0.75016822  0.31739025  0.61472672     2.06300
Zr741      Zr  0.75238134  0.18730916  0.61870945     2.10000
Zr742      Zr  0.79477166  0.25155116  0.54718888     1.78800
O743        O  0.73803272  0.14617552  0.67060841    -0.93600
O744        O  0.82054630  0.29823778  0.51479952    -0.44600
O745        O  0.79792433  0.22226271  0.61262326    -0.78000
O746        O  0.79749041  0.28439161  0.60958021    -0.96700
O747        O  0.75221309  0.28860653  0.68103545    -0.90000
O748        O  0.75389465  0.21917640  0.68240848    -0.92800
C749        C  0.74438943  0.25131883  0.45994749     1.00900
C750        C  0.67625158  0.17158898  0.57882641     1.13900
C751        C  0.67858552  0.33095716  0.56159242     1.04600
O752        O  0.76785648  0.35726679  0.56285596    -0.95000
O753        O  0.79650667  0.34494296  0.64476466    -0.90700
O754        O  0.82519042  0.30790842  0.68236086    -0.83900
C755        C  0.82075264  0.33648529  0.66767427     1.11300
O756        O  0.64876850  0.25577512  0.68330380    -0.97000
Zr757      Zr  0.70752008  0.25271621  0.68678598     1.88900
O758        O  0.78376539  0.25315877  0.75234108    -0.73600
O759        O  0.73092277  0.35822353  0.66436965    -0.52900
O760        O  0.68881205  0.30045752  0.72454060    -0.97500
O761        O  0.68113769  0.20607205  0.71845884    -0.54800
O762        O  0.72934648  0.24902892  0.75792049    -0.74100
C763        C  0.75764698  0.25031035  0.77433295     0.98200
O764        O  0.85349809  0.25218751  0.70447306    -0.62900
O765        O  0.76876415  0.14666489  0.56695286    -0.57700
O766        O  0.82949486  0.20546964  0.68090142    -0.94400
O767        O  0.80208863  0.16525587  0.64709009    -0.92900
O768        O  0.81548773  0.20354285  0.51221718    -0.93200
O769        O  0.85349319  0.24850072  0.54673728    -0.92000
C770        C  0.82627794  0.17626457  0.66820093     1.17100
H771        H  0.74780659  0.20214132  0.52853279     0.33000
H772        H  0.81683988  0.29694114  0.60558142     0.43900
H773        H  0.75610552  0.20536280  0.70700862     0.37400
H774        H  0.68428155  0.29503287  0.62603688     0.33900
H775        H  0.82920948  0.29028905  0.48732303     0.25700
H776        H  0.73729666  0.37893908  0.65126840     0.31600
H777        H  0.67886391  0.31416504  0.70229256     0.37500
H778        H  0.81674222  0.18729737  0.53521453     0.32000
H779        H  0.76763301  0.12606338  0.58269962     0.30800
H780        H  0.74888551  0.12638023  0.66050969     0.32500
H781        H  0.67638467  0.19163384  0.69405843     0.31500
H782        H  0.86013257  0.25583470  0.57554692     0.35500
H783        H  0.86738877  0.26355249  0.68368574     0.28200
H784        H  0.65190280  0.25952492  0.49731229     0.32500
H785        H  0.64150733  0.25705285  0.71333694     0.35300
H786        H  0.75083083  0.14538102  0.54604000     0.27900
H787        H  0.85373284  0.26577053  0.73042887     0.40800
H788        H  0.79159851  0.35480703  0.56135755     0.30800
H789        H  0.80243120  0.31244645  0.50647556     0.38500
H790        H  0.69832681  0.19482428  0.73460541     0.30300
H791        H  0.70709112  0.35776487  0.66191272     0.30400
H792        H  0.63500626  0.25429408  0.54165840     0.30600
Zr793      Zr  0.49933955  0.45067252  0.05150124     2.17500
O794        O  0.49092087  0.40218127  0.09357630    -0.51700
O795        O  0.49995147  0.46776298  0.12706923    -0.74900
O796        O  0.55001037  0.41929733  0.05564504    -0.81700
O797        O  0.40888362  0.45073910  0.02243410    -0.83500
O798        O  0.58841171  0.44812665  0.02163310    -0.79100
O799        O  0.44886605  0.42088122  0.05274709    -0.90700
O800        O  0.49937846  0.52213921  0.13126373    -0.76700
O801        O  0.53471367  0.49566399  0.05502037    -0.86200
O802        O  0.46533034  0.49683341  0.05679876    -0.85900
O803        O  0.52820011  0.44858019  0.98462824    -0.72600
O804        O  0.46614655  0.45158420  0.98804773    -0.84700
Zr805      Zr  0.49933943  0.54361519  0.93118859     2.26400
Zr806      Zr  0.56337003  0.49419332  0.98861471     2.06300
Zr807      Zr  0.43346175  0.49850632  0.99298443     2.10000
Zr808      Zr  0.50057001  0.54185132  0.05935089     1.78800
O809        O  0.39144580  0.48107155  0.94349253    -0.93600
O810        O  0.54840884  0.56484855  0.09321147    -0.41400
O811        O  0.46842531  0.54426098  0.99604492    -0.78000
O812        O  0.53139185  0.54196439  0.99565939    -0.96700
O813        O  0.53156773  0.49638852  0.92482408    -0.90000
O814        O  0.46269368  0.49923569  0.92712659    -0.92800
C815        C  0.49932963  0.49427031  0.14841608     1.00900
C816        C  0.41943551  0.42570757  0.04171110     1.13900
C817        C  0.57920489  0.42321334  0.04242127     1.04600
O818        O  0.60924600  0.51058904  0.03238765    -0.95000
O819        O  0.59072381  0.53939143  0.95697636    -0.90700
O820        O  0.55226027  0.57050426  0.92521231    -0.83900
C821        C  0.58152230  0.56470874  0.93717277     1.11300
O822        O  0.49218922  0.39365518  0.92786815    -0.97000
Zr823      Zr  0.49500642  0.45209218  0.92217718     1.88900
O824        O  0.49726347  0.52769161  0.85548742    -0.73600
O825        O  0.59751684  0.47105485  0.93342592    -0.52900
O826        O  0.53964263  0.42627584  0.88497843    -0.97500
O827        O  0.44568015  0.43016255  0.89061904    -0.54800
O828        O  0.49603720  0.47319809  0.85057475    -0.74100
C829        C  0.49673680  0.50127540  0.83395844     0.98200
O830        O  0.50433356  0.59637405  0.89769221    -0.62900
O831        O  0.39384384  0.51840690  0.04401796    -0.57700
O832        O  0.44850306  0.57439466  0.93069832    -0.94400
O833        O  0.40905961  0.54619415  0.96414126    -0.92900
O834        O  0.45388217  0.56736857  0.09199441    -0.93200
O835        O  0.50159006  0.60026249  0.05359831    -0.92000
C836        C  0.41914589  0.57063388  0.94335739     1.17100
H837        H  0.45166323  0.49574098  0.08166833     0.33000
H838        H  0.54452765  0.56089192  0.99962445     0.43900
H839        H  0.44820159  0.50152861  0.90309534     0.37400
H840        H  0.53977486  0.42869617  0.98064989     0.33900
H841        H  0.54098119  0.57235743  0.12152771     0.25700
H842        H  0.61955891  0.47158408  0.94576040     0.31600
H843        H  0.55033894  0.44368579  0.86874156     0.37500
H844        H  0.43752139  0.56833129  0.06890848     0.32000
H845        H  0.37281975  0.51645186  0.02909048     0.30800
H846        H  0.37173888  0.47906343  0.96108415     0.32500
H847        H  0.45043495  0.42787116  0.85982067     0.31500
H848        H  0.49948682  0.60453947  0.02262305     0.35500
H849        H  0.48808002  0.59674706  0.87444160     0.28200
H850        H  0.50759566  0.40295493  0.11623292     0.32500
H851        H  0.49169288  0.38550201  0.89816007     0.35300
H852        H  0.39288280  0.50202235  0.06687825     0.27900
H853        H  0.49651300  0.61211426  0.91904448     0.40800
H854        H  0.60414717  0.53280787  0.04157024     0.30800
H855        H  0.56241691  0.54616853  0.09959666     0.38500
H856        H  0.42957279  0.44766302  0.89201710     0.30300
H857        H  0.59174271  0.44793617  0.93289345     0.30400
H858        H  0.49708773  0.38398564  0.07493559     0.30600
Zr859      Zr  0.49961665  0.45280323  0.55288971     2.17500
O860        O  0.49418166  0.40021348  0.58669216    -0.51700
O861        O  0.50132986  0.47039401  0.62815254    -0.74900
O862        O  0.55205378  0.42487803  0.55811937    -0.81700
O863        O  0.40990465  0.44828047  0.52011693    -0.83500
O864        O  0.58985748  0.45172625  0.51955257    -0.79100
O865        O  0.44919331  0.42221715  0.55736861    -0.90700
O866        O  0.49840640  0.52483578  0.63139069    -0.76700
O867        O  0.53457580  0.49828064  0.55452010    -0.86200
O868        O  0.46508122  0.49866905  0.55846004    -0.85900
O869        O  0.52819059  0.45092510  0.48587965    -0.72600
O870        O  0.46596522  0.45274233  0.49012001    -0.84700
Zr871      Zr  0.49779899  0.54406523  0.43070649     2.26400
Zr872      Zr  0.56291483  0.49715035  0.48784701     2.06300
Zr873      Zr  0.43253161  0.49902796  0.49506927     2.10000
Zr874      Zr  0.50013348  0.54409793  0.55914143     1.78800
O875        O  0.38787347  0.48639037  0.44705177    -0.93600
O876        O  0.54706753  0.56662669  0.59569732    -0.41400
O877        O  0.46759038  0.54471120  0.49624595    -0.78000
O878        O  0.53033949  0.54443341  0.49467893    -0.96700
O879        O  0.53039756  0.49722755  0.42463223    -0.90000
O880        O  0.46136393  0.49920875  0.42871095    -0.92800
C881        C  0.50000766  0.49715346  0.64892745     1.00900
C882        C  0.42034032  0.42443673  0.54230629     1.13900
C883        C  0.58078958  0.42823396  0.54306540     1.04600
O884        O  0.60686836  0.51455963  0.53420897    -0.95000
O885        O  0.58928785  0.54280281  0.45527254    -0.90700
O886        O  0.55026042  0.57214509  0.42258949    -0.83900
C887        C  0.57982531  0.56748829  0.43429577     1.11300
O888        O  0.49198631  0.39410471  0.43246561    -0.97000
Zr889      Zr  0.49428794  0.45242675  0.42411521     1.88900
O890        O  0.49687530  0.52653611  0.35543764    -0.73600
O891        O  0.59753771  0.47648134  0.43146414    -0.52900
O892        O  0.53901357  0.42670176  0.38700248    -0.97500
O893        O  0.44489270  0.42861313  0.39531307    -0.54800
O894        O  0.49400851  0.47214965  0.35187269    -0.74100
C895        C  0.49566528  0.49989760  0.33435880     0.98200
O896        O  0.49337154  0.59755160  0.39914098    -0.62900
O897        O  0.39467408  0.51497447  0.55058970    -0.57700
O898        O  0.44732378  0.57443571  0.42923218    -0.94400
O899        O  0.40914851  0.54827638  0.46813098    -0.92900
O900        O  0.45320747  0.57213334  0.58730360    -0.93200
O901        O  0.50538417  0.60229698  0.55304238    -0.92000
C902        C  0.41883742  0.57180734  0.44502165     1.17100
H903        H  0.45171163  0.49766811  0.58362416     0.33000
H904        H  0.54313256  0.56368796  0.49771218     0.43900
H905        H  0.44664731  0.50082030  0.40480790     0.37400
H906        H  0.54005315  0.43115425  0.48252216     0.33900
H907        H  0.53860106  0.57539680  0.62284634     0.25700
H908        H  0.61961116  0.47740243  0.44362619     0.31600
H909        H  0.55044684  0.41386155  0.40892612     0.37500
H910        H  0.45964018  0.57875792  0.61649442     0.32000
H911        H  0.39712391  0.53860820  0.55297293     0.30800
H912        H  0.36903508  0.48314424  0.46593236     0.32500
H913        H  0.44591149  0.43199754  0.36408553     0.31500
H914        H  0.49779760  0.60722709  0.52376383     0.35500
H915        H  0.50301439  0.61253313  0.42026722     0.28200
H916        H  0.50467888  0.40240414  0.61495863     0.32500
H917        H  0.49105622  0.38521253  0.40314504     0.35300
H918        H  0.37305091  0.51186106  0.53763788     0.27900
H919        H  0.50827384  0.59788802  0.37454217     0.40800
H920        H  0.60111817  0.53681804  0.54249555     0.30800
H921        H  0.56008248  0.54775080  0.60435587     0.38500
H922        H  0.42728909  0.44287826  0.40506432     0.30300
H923        H  0.59253668  0.45322190  0.42997379     0.30400
H924        H  0.50795342  0.38513571  0.57040292     0.30600
Zr925      Zr  0.99899389  0.54896552  0.29778646     2.17500
O926        O  0.00959899  0.59940495  0.33484254    -0.51700
O927        O  0.99717442  0.53205076  0.37323441    -0.74900
O928        O  0.94810223  0.57995225  0.30443295    -0.81700
O929        O  0.08927642  0.54845051  0.26494466    -0.83500
O930        O  0.90886749  0.55194668  0.27013166    -0.79100
O931        O  0.05097308  0.57695303  0.30057679    -0.90700
O932        O  0.99752464  0.47762105  0.37678900    -0.76700
O933        O  0.96332588  0.50422089  0.30192255    -0.86200
O934        O  0.03266309  0.50233960  0.30160437    -0.85900
O935        O  0.96852073  0.55123469  0.23194456    -0.72600
O936        O  0.03056311  0.54782983  0.23340462    -0.84700
Zr937      Zr  0.99535886  0.45654221  0.17625070     2.26400
Zr938      Zr  0.93302133  0.50566259  0.23655344     2.06300
Zr939      Zr  0.06317757  0.50061367  0.23671611     2.10000
Zr940      Zr  0.99683770  0.45763866  0.30475213     1.78800
O941        O  0.10500470  0.51809888  0.18729906    -0.93600
O942        O  0.94839036  0.43513609  0.33710125    -0.41400
O943        O  0.02761024  0.45535635  0.24042861    -0.78000
O944        O  0.96482256  0.45772443  0.24162179    -0.96700
O945        O  0.96326616  0.50393192  0.17155125    -0.90000
O946        O  0.03232720  0.50057727  0.17178429    -0.92800
C947        C  0.99727529  0.50543308  0.39424881     1.00900
C948        C  0.07993590  0.57268874  0.28708676     1.13900
C949        C  0.91860963  0.57633465  0.29173427     1.04600
O950        O  0.89128297  0.48684569  0.28512888    -0.95000
O951        O  0.90479913  0.46089272  0.20409995    -0.90700
O952        O  0.94205569  0.43048175  0.16996347    -0.83900
C953        C  0.91296278  0.43592416  0.18276495     1.11300
O954        O  0.00316169  0.60654191  0.16966676    -0.97000
Zr955      Zr  0.00019347  0.54792497  0.16843303     1.88900
O956        O  0.99725903  0.47313285  0.10082500    -0.73600
O957        O  0.89404585  0.52777757  0.18615505    -0.52900
O958        O  0.95307456  0.57214960  0.13451973    -0.97500
O959        O  0.04977497  0.56976817  0.13813711    -0.54800
O960        O  0.00052136  0.52752608  0.09643312    -0.74100
C961        C  0.99902291  0.49955270  0.07950505     0.98200
O962        O  0.98804783  0.40384891  0.14307707    -0.62900
O963        O  0.10334346  0.48168110  0.28779528    -0.57700
O964        O  0.04514660  0.42438714  0.17370433    -0.94400
O965        O  0.08544688  0.45116079  0.20827597    -0.92900
O966        O  0.04219568  0.43027200  0.33861471    -0.93200
O967        O  0.99543414  0.39923339  0.29865657    -0.92000
C968        C  0.07440821  0.42699089  0.18727742     1.17100
H969        H  0.04681831  0.50323350  0.32616072     0.33000
H970        H  0.95162181  0.43880772  0.24517076     0.43900
H971        H  0.04624460  0.49840640  0.14729363     0.37400
H972        H  0.95694017  0.57119599  0.22868466     0.33900
H973        H  0.95610652  0.42449708  0.36348869     0.25700
H974        H  0.87330647  0.52784773  0.20179030     0.31600
H975        H  0.95992312  0.57717158  0.10502236     0.37500
H976        H  0.05121747  0.44591780  0.35932913     0.32000
H977        H  0.09845204  0.45855748  0.29180394     0.30800
H978        H  0.10351883  0.50328868  0.16259897     0.32500
H979        H  0.05824080  0.55270903  0.11916404     0.31500
H980        H  0.99929954  0.39491266  0.26800502     0.35500
H981        H  0.00290629  0.40334061  0.11843019     0.28200
H982        H  0.99483603  0.59954973  0.35955925     0.32500
H983        H  0.00384846  0.61328325  0.13937193     0.35300
H984        H  0.12395192  0.48198396  0.27186830     0.27900
H985        H  0.99675862  0.38791451  0.16357467     0.40800
H986        H  0.89727498  0.49583957  0.31335022     0.30800
H987        H  0.93608045  0.45400300  0.34737531     0.38500
H988        H  0.06521919  0.57051686  0.16231687     0.30300
H989        H  0.89992799  0.55078499  0.18355369     0.30400
H990        H  0.00174752  0.61654716  0.31556121     0.30600
Zr991      Zr  0.00415457  0.54777358  0.79867206     2.17500
O992        O  0.01063116  0.59923558  0.83537484    -0.51700
O993        O  0.00622798  0.52979068  0.87370810    -0.74900
O994        O  0.95166895  0.57520158  0.80839032    -0.81700
O995        O  0.09344211  0.55119079  0.76176392    -0.83500
O996        O  0.91251365  0.54639175  0.77453477    -0.79100
O997        O  0.05491688  0.57836596  0.79858986    -0.90700
O998        O  0.00092270  0.47552482  0.87666415    -0.76700
O999        O  0.97012741  0.50168503  0.80333113    -0.86200
O1000       O  0.03933729  0.50232900  0.80090604    -0.85900
O1001       O  0.97186958  0.54894673  0.73425389    -0.72600
O1002       O  0.03432091  0.54830475  0.73308056    -0.84700
Zr1003     Zr  0.00181936  0.45604780  0.67572708     2.26400
Zr1004     Zr  0.93848644  0.50188954  0.73909725     2.06300
Zr1005     Zr  0.06859051  0.50224102  0.73495549     2.10000
Zr1006     Zr  0.00520377  0.45632078  0.80446243     1.78800
O1007       O  0.10715171  0.51687920  0.67978863    -0.93600
O1008       O  0.95955394  0.42671031  0.83374583    -0.41400
O1009       O  0.03457732  0.45603451  0.73920343    -0.78000
O1010       O  0.97217608  0.45502280  0.74198340    -0.96700
O1011       O  0.96757058  0.50193635  0.67321180    -0.90000
O1012       O  0.03665969  0.50180003  0.67094496    -0.92800
C1013       C  0.00354107  0.50313070  0.89434997     1.00900
C1014       C  0.08372825  0.57540282  0.78365745     1.13900
C1015       C  0.92213177  0.57055638  0.79663403     1.04600
O1016       O  0.89894064  0.47939580  0.78811574    -0.95000
O1017       O  0.91117457  0.45750031  0.70512216    -0.90700
O1018       O  0.94933927  0.42816394  0.67039491    -0.83900
C1019       C  0.92024618  0.43309872  0.68328651     1.11300
O1020       O  0.99918258  0.60608924  0.67481416    -0.97000
Zr1021     Zr  0.00214518  0.54761454  0.66958455     1.88900
O1022       O  0.00085521  0.47338676  0.60065081    -0.73600
O1023       O  0.89821624  0.52296432  0.68968261    -0.52900
O1024       O  0.95299243  0.56752264  0.63578993    -0.97500
O1025       O  0.04849140  0.57439155  0.63743990    -0.54800
O1026       O  0.00140675  0.52782948  0.59736817    -0.74100
C1027       C  0.00080112  0.50005194  0.57981019     0.98200
O1028       O  0.00532774  0.40541295  0.63648977    -0.62900
O1029       O  0.11188217  0.48688430  0.78374117    -0.57700
O1030       O  0.05181856  0.42432292  0.67525144    -0.94400
O1031       O  0.09137007  0.45213435  0.70991079    -0.92900
O1032       O  0.05483939  0.43733158  0.83782486    -0.93200
O1033       O  0.01046942  0.39805157  0.80068460    -0.92000
C1034       C  0.08088686  0.42753793  0.68937153     1.17100
H1035       H  0.05390454  0.50351329  0.82501881     0.33000
H1036       H  0.95975964  0.43556653  0.74542673     0.43900
H1037       H  0.05018807  0.50060218  0.64594270     0.37400
H1038       H  0.95928435  0.56836839  0.73185810     0.33900
H1039       H  0.96634570  0.42061810  0.86296794     0.25700
H1040       H  0.87747024  0.52108282  0.70509858     0.31600
H1041       H  0.96009602  0.57728892  0.60858036     0.37500
H1042       H  0.04815304  0.42926568  0.86617152     0.32000
H1043       H  0.10742821  0.46414781  0.79108553     0.30800
H1044       H  0.12793869  0.50764892  0.68950296     0.32500
H1045       H  0.04488316  0.57306688  0.60623695     0.31500
H1046       H  0.01088139  0.39321120  0.76973412     0.35500
H1047       H  0.99644750  0.38874782  0.65573448     0.28200
H1048       H  0.00127396  0.59599360  0.86406215     0.32500
H1049       H  0.99928261  0.61409540  0.64506161     0.35300
H1050       H  0.13152869  0.48605471  0.76585962     0.27900
H1051       H  0.98948400  0.40710455  0.61287634     0.40800
H1052       H  0.90319907  0.49016600  0.81578359     0.30800
H1053       H  0.94261608  0.44315873  0.83808016     0.38500
H1054       H  0.06697516  0.55990300  0.64291094     0.30300
H1055       H  0.90249229  0.54638130  0.68841470     0.30400
H1056       H  0.99613581  0.61472741  0.82090531     0.30600
C1057       C  0.01819335  0.48305195  0.46212237    -0.06200
C1058       C  0.99813486  0.50577532  0.44187004    -0.00200
C1059       C  0.97815151  0.52569585  0.46733309    -0.08800
C1060       C  0.97945626  0.52238696  0.51209125    -0.06200
C1061       C  0.99951675  0.49967448  0.53226713    -0.00300
C1062       C  0.01928009  0.47958598  0.50682809    -0.08700
C1063       C  0.04197908  0.45512245  0.52658591     0.61700
H1064       H  0.03315581  0.46777277  0.44236665     0.12400
H1065       H  0.96461939  0.53770289  0.53196384     0.12400
C1066       C  0.95495965  0.54979835  0.44773281     0.61900
F1067       F  0.06198011  0.44111224  0.49652914    -0.23300
F1068       F  0.02420320  0.43093147  0.54555890    -0.20600
F1069       F  0.06130751  0.46996349  0.55684239    -0.20300
F1070       F  0.93556370  0.53473081  0.41771243    -0.20300
F1071       F  0.97219816  0.57423529  0.42850936    -0.20700
F1072       F  0.93500479  0.56354106  0.47807994    -0.23300
C1073       C  0.02570333  0.51485906  0.01188393    -0.06200
C1074       C  0.00028004  0.49844888  0.03210429    -0.00200
C1075       C  0.97583868  0.48392113  0.00683354    -0.08800
C1076       C  0.97759550  0.48672369  0.96203586    -0.06200
C1077       C  0.00279933  0.50347180  0.94181887    -0.00300
C1078       C  0.02774573  0.51717271  0.96705408    -0.08700
C1079       C  0.05700644  0.53297382  0.94681368     0.61700
H1080       H  0.04419233  0.52578995  0.03172052     0.12400
H1081       H  0.95906521  0.47587559  0.94219509     0.12400
C1082       C  0.94748674  0.46648974  0.02698289     0.61900
F1083       F  0.07996984  0.54158275  0.97699136    -0.23300
F1084       F  0.04772457  0.56047964  0.92531084    -0.20600
F1085       F  0.07130553  0.51183985  0.91845075    -0.20300
F1086       F  0.93098596  0.48728288  0.05361698    -0.20300
F1087       F  0.95841952  0.44047279  0.05032772    -0.20700
F1088       F  0.92599022  0.45503501  0.99658968    -0.23300
C1089       C  0.47533262  0.51500258  0.71681720    -0.06200
C1090       C  0.49947664  0.49694056  0.69639306    -0.00200
C1091       C  0.52368228  0.48196852  0.72143346    -0.08800
C1092       C  0.52222063  0.48468687  0.76621258    -0.06200
C1093       C  0.49784588  0.50240030  0.78661952    -0.00300
C1094       C  0.47397014  0.51790511  0.76162000    -0.08700
C1095       C  0.44671753  0.53664671  0.78214270     0.61700
H1096       H  0.45733596  0.52681092  0.69717532     0.12400
H1097       H  0.54018959  0.47283539  0.78586153     0.12400
C1098       C  0.55123658  0.46380351  0.70094287     0.61900
F1099       F  0.42466208  0.54760501  0.75220553    -0.23300
F1100       F  0.45914484  0.56303622  0.80351363    -0.20600
F1101       F  0.43043407  0.51719052  0.81068696    -0.20300
F1102       F  0.56673536  0.48343705  0.67182811    -0.20300
F1103       F  0.53914032  0.43697185  0.68037874    -0.20700
F1104       F  0.57385213  0.45365243  0.73065488    -0.23300
C1105       C  0.47777595  0.47665264  0.26494654    -0.06200
C1106       C  0.49613179  0.50022457  0.28658197    -0.00200
C1107       C  0.51609067  0.52107753  0.26233695    -0.08800
C1108       C  0.51690312  0.51739763  0.21761683    -0.06200
C1109       C  0.49870766  0.49376125  0.19606383    -0.00300
C1110       C  0.47846633  0.47313503  0.22014016    -0.08700
C1111       C  0.45707488  0.44802196  0.19891495     0.61700
H1112       H  0.46269283  0.46077085  0.28366541     0.12400
H1113       H  0.53199325  0.53320832  0.19879771     0.12400
C1114       C  0.53724052  0.54655352  0.28320431     0.61900
F1115       F  0.43628469  0.43363001  0.22768165    -0.23300
F1116       F  0.47605622  0.42419246  0.18131652    -0.20600
F1117       F  0.43852089  0.46211896  0.16726198    -0.20300
F1118       F  0.55733385  0.53240526  0.31312186    -0.20300
F1119       F  0.51810239  0.56939001  0.30274881    -0.20700
F1120       F  0.55646160  0.56234380  0.25382563    -0.23300
C1121       C  0.85917289  0.37474323  0.63579293    -0.06200
C1122       C  0.84671318  0.36065642  0.67311770    -0.00200
C1123       C  0.85872056  0.37048114  0.71340573    -0.08800
C1124       C  0.88339286  0.39369756  0.71481028    -0.06200
C1125       C  0.89592357  0.40755836  0.67753186    -0.00300
C1126       C  0.88345714  0.39843951  0.63733432    -0.08700
C1127       C  0.89462881  0.41476473  0.59673476     0.61700
H1128       H  0.84947089  0.36712597  0.60524198     0.12400
H1129       H  0.89293884  0.40164827  0.74530890     0.12400
C1130       C  0.84458071  0.35781410  0.75463078     0.61900
F1131       F  0.87810186  0.40352391  0.56121407    -0.23300
F1132       F  0.92716081  0.40915101  0.59064636    -0.20600
F1133       F  0.88942988  0.44755639  0.59986755    -0.20300
F1134       F  0.84944912  0.32505659  0.75729205    -0.20300
F1135       F  0.81185342  0.36431624  0.75560808    -0.20700
F1136       F  0.85871340  0.37188965  0.79018931    -0.23300
C1137       C  0.62044534  0.39063295  0.51239475    -0.06200
C1138       C  0.60457315  0.40206497  0.54911210    -0.00200
C1139       C  0.61241864  0.38890455  0.58946078    -0.08800
C1140       C  0.63643186  0.36515586  0.59174198    -0.06200
C1141       C  0.65219774  0.35396384  0.55512176    -0.00300
C1142       C  0.64403904  0.36639808  0.51471756    -0.08700
C1143       C  0.66049353  0.35426691  0.47465907     0.61700
H1144       H  0.61397411  0.40071820  0.48166640     0.12400
H1145       H  0.64330380  0.35510831  0.62235311     0.12400
C1146       C  0.59634299  0.40044943  0.62993575     0.61900
F1147       F  0.65080355  0.37117848  0.43881441    -0.23300
F1148       F  0.65292069  0.32218009  0.46851955    -0.20600
F1149       F  0.69361946  0.35745268  0.47874231    -0.20300
F1150       F  0.56405198  0.39228165  0.62879586    -0.20300
F1151       F  0.59965742  0.43344642  0.63327240    -0.20700
F1152       F  0.60977043  0.38667915  0.66607998    -0.23300
C1153       C  0.77426616  0.26807632  0.89228875    -0.06200
C1154       C  0.75296754  0.24646558  0.91228061    -0.00200
C1155       C  0.73541023  0.22431593  0.88677221    -0.08800
C1156       C  0.73846690  0.22588367  0.84198482    -0.06200
C1157       C  0.75920272  0.24803623  0.82188185    -0.00300
C1158       C  0.77792217  0.26912243  0.84757407    -0.08700
C1159       C  0.80147424  0.29278737  0.82806925     0.61700
H1160       H  0.78825920  0.28424123  0.91224909     0.12400
H1161       H  0.72447961  0.20967557  0.82208087     0.12400
C1162       C  0.71444956  0.19844377  0.90666287     0.61900
F1163       F  0.81401626  0.31386947  0.85812033    -0.23300
F1164       F  0.78612673  0.31081541  0.79700347    -0.20600
F1165       F  0.82686373  0.27600859  0.81016994    -0.20300
F1166       F  0.68843157  0.21247780  0.92686376    -0.20300
F1167       F  0.73237357  0.18109558  0.93600864    -0.20700
F1168       F  0.70262248  0.17707566  0.87645225    -0.23300
C1169       C  0.72823451  0.22843177  0.34347137    -0.06200
C1170       C  0.74869863  0.25003923  0.32201943    -0.00200
C1171       C  0.76607347  0.27329440  0.34603447    -0.08800
C1172       C  0.76289232  0.27342999  0.39081383    -0.06200
C1173       C  0.74284034  0.25148094  0.41237862    -0.00300
C1174       C  0.72505994  0.22859054  0.38826531    -0.08700
C1175       C  0.70341677  0.20395752  0.40955043     0.61700
H1176       H  0.71472576  0.21113969  0.32462897     0.12400
H1177       H  0.77638627  0.29074719  0.40963260     0.12400
C1178       C  0.78717920  0.29845813  0.32467833     0.61900
F1179       F  0.69131210  0.18171690  0.38066768    -0.23300
F1180       F  0.67757150  0.21945970  0.42825004    -0.20600
F1181       F  0.72063200  0.18733997  0.44032682    -0.20300
F1182       F  0.76938885  0.31501760  0.29439529    -0.20300
F1183       F  0.81320867  0.28376729  0.30528676    -0.20700
F1184       F  0.79916367  0.32065208  0.35370180    -0.23300
C1185       C  0.83298111  0.38958654  0.17816747    -0.06200
C1186       C  0.84382603  0.35747802  0.17771807    -0.00200
C1187       C  0.87762340  0.35166508  0.17577042    -0.08800
C1188       C  0.89897848  0.37810361  0.17540921    -0.06200
C1189       C  0.88811055  0.41013268  0.17693733    -0.00300
C1190       C  0.85425984  0.41601397  0.17749257    -0.08700
C1191       C  0.84005655  0.44978224  0.17722763     0.61700
H1192       H  0.80722924  0.39397142  0.17926430     0.12400
H1193       H  0.92473915  0.37377237  0.17547359     0.12400
C1194       C  0.89155861  0.31793134  0.17444697     0.61900
F1195       F  0.80735063  0.44952640  0.16782790    -0.23300
F1196       F  0.85515479  0.46842626  0.14664836    -0.20600
F1197       F  0.84386157  0.46377540  0.21698895    -0.20300
F1198       F  0.87843840  0.30081051  0.14067160    -0.20300
F1199       F  0.88486480  0.30263191  0.21247970    -0.20700
F1200       F  0.92475162  0.31804579  0.16938714    -0.23300
C1201       C  0.62334591  0.34222650  0.05761051    -0.06200
C1202       C  0.65538249  0.35164003  0.05039820    -0.00200
C1203       C  0.66217121  0.38423357  0.04088761    -0.08800
C1204       C  0.63668826  0.40643621  0.04071114    -0.06200
C1205       C  0.60433199  0.39746185  0.04839749    -0.00300
C1206       C  0.59757905  0.36440245  0.05683211    -0.08700
C1207       C  0.56381393  0.35212201  0.06578223     0.61700
H1208       H  0.61881659  0.31727290  0.06552077     0.12400
H1209       H  0.64226542  0.43143938  0.03454944     0.12400
C1210       C  0.69604681  0.39579362  0.03010674     0.61900
F1211       F  0.56299044  0.31909869  0.07152590    -0.23300
F1212       F  0.54357944  0.35931188  0.03191056    -0.20600
F1213       F  0.55267122  0.36616207  0.10285752    -0.20300
F1214       F  0.71034692  0.37478487  0.00157656    -0.20300
F1215       F  0.71455226  0.39775510  0.06681582    -0.20700
F1216       F  0.69570512  0.42597378  0.01145271    -0.23300
C1217       C  0.86807897  0.63384728  0.84889423    -0.06200
C1218       C  0.84870146  0.64277875  0.81399447    -0.00200
C1219       C  0.85311740  0.62764152  0.77419635    -0.08800
C1220       C  0.87761798  0.60450640  0.77012851    -0.06200
C1221       C  0.89755270  0.59581540  0.80475641    -0.00300
C1222       C  0.89249215  0.61039876  0.84507374    -0.08700
C1223       C  0.91173637  0.60046945  0.88412949     0.61700
H1224       H  0.86371865  0.64534515  0.87938854     0.12400
H1225       H  0.88155401  0.59309758  0.73948437     0.12400
C1226       C  0.83192620  0.63605006  0.73642893     0.61900
F1227       F  0.89961254  0.61410610  0.92108617    -0.23300
F1228       F  0.94337863  0.61033916  0.87980130    -0.20600
F1229       F  0.91074174  0.56737883  0.88871542    -0.20300
F1230       F  0.83754497  0.66768559  0.72542737    -0.20300
F1231       F  0.79974681  0.63213017  0.74705016    -0.20700
F1232       F  0.83828822  0.61691037  0.70126461    -0.23300
C1233       C  0.64551673  0.62131596  0.89444509    -0.06200
C1234       C  0.65511110  0.63728566  0.93221069    -0.00200
C1235       C  0.64041898  0.62887758  0.97133509    -0.08800
C1236       C  0.61566851  0.60568161  0.97100001    -0.06200
C1237       C  0.60587348  0.59028066  0.93320861    -0.00300
C1238       C  0.62134105  0.59747122  0.89446383    -0.08700
C1239       C  0.61303588  0.57903772  0.85407864     0.61700
H1240       H  0.65730945  0.62757001  0.86478819     0.12400
H1241       H  0.60395786  0.59893901  0.00055041     0.12400
C1242       C  0.65185241  0.64296786  0.01334993     0.61900
F1243       F  0.63170052  0.58876392  0.81987897    -0.23300
F1244       F  0.58091553  0.58380699  0.84369642    -0.20600
F1245       F  0.61829532  0.54652894  0.86057640    -0.20300
F1246       F  0.64465798  0.67534739  0.01478229    -0.20300
F1247       F  0.68483109  0.63873260  0.01727282    -0.20700
F1248       F  0.63724027  0.62829741  0.04793720    -0.23300
C1249       C  0.76893419  0.73179622  0.60081947    -0.06200
C1250       C  0.74612061  0.75163787  0.58052594    -0.00200
C1251       C  0.72637161  0.77193067  0.60574002    -0.08800
C1252       C  0.72972947  0.77088478  0.65058276    -0.06200
C1253       C  0.75252228  0.75086902  0.67090311    -0.00300
C1254       C  0.77241747  0.73091706  0.64549651    -0.08700
C1255       C  0.79634223  0.70784770  0.66541220     0.61700
H1256       H  0.78415080  0.71673620  0.58109572     0.12400
H1257       H  0.71444698  0.78585451  0.67032925     0.12400
C1258       C  0.70276219  0.79539470  0.58556717     0.61900
F1259       F  0.81063241  0.68805463  0.63536307    -0.23300
F1260       F  0.78056197  0.68850702  0.69458301    -0.20600
F1261       F  0.82054492  0.72506546  0.68564808    -0.20300
F1262       F  0.67832130  0.77866973  0.56516462    -0.20300
F1263       F  0.71866472  0.81456198  0.55630551    -0.20700
F1264       F  0.68876882  0.81538671  0.61564944    -0.23300
C1265       C  0.76994081  0.76789303  0.10084767    -0.06200
C1266       C  0.74690914  0.74795523  0.08067327    -0.00200
C1267       C  0.72714918  0.72798897  0.10632848    -0.08800
C1268       C  0.73011236  0.72992837  0.15109034    -0.06200
C1269       C  0.75282322  0.75017374  0.17121418    -0.00300
C1270       C  0.77352796  0.76916467  0.14556743    -0.08700
C1271       C  0.79867763  0.79135910  0.16506898     0.61700
H1272       H  0.78535457  0.78266191  0.08103611     0.12400
H1273       H  0.71465158  0.71526526  0.17098591     0.12400
C1274       C  0.70402364  0.70374462  0.08683914     0.61900
F1275       F  0.81452924  0.80945577  0.13453990    -0.23300
F1276       F  0.82162866  0.77337873  0.18646307    -0.20600
F1277       F  0.78389909  0.81232363  0.19313504    -0.20300
F1278       F  0.72041713  0.68455871  0.05808308    -0.20300
F1279       F  0.67923536  0.71967573  0.06623633    -0.20700
F1280       F  0.69046624  0.68384749  0.11734184    -0.23300
C1281       C  0.87462410  0.65688132  0.30952660    -0.06200
C1282       C  0.84225067  0.64693039  0.30776294    -0.00200
C1283       C  0.83520501  0.61398914  0.30045105    -0.08800
C1284       C  0.86094193  0.59213022  0.29714750    -0.06200
C1285       C  0.89358741  0.60174987  0.29991186    -0.00300
C1286       C  0.90047620  0.63505143  0.30578350    -0.08700
C1287       C  0.93462243  0.64795710  0.30881424     0.61700
H1288       H  0.87957908  0.68207732  0.31548121     0.12400
H1289       H  0.85544022  0.56687758  0.29267977     0.12400
C1290       C  0.80080632  0.60156215  0.29582204     0.61900
F1291       F  0.93548978  0.68120781  0.31155747    -0.23300
F1292       F  0.95195856  0.63909628  0.27302837    -0.20600
F1293       F  0.94899514  0.63592254  0.34523323    -0.20300
F1294       F  0.78318601  0.62155631  0.26924010    -0.20300
F1295       F  0.78636526  0.60017557  0.33548579    -0.20700
F1296       F  0.79991802  0.57096400  0.27831345    -0.23300
C1297       C  0.65911195  0.61322142  0.42042650    -0.06200
C1298       C  0.64997314  0.64524463  0.42980767    -0.00200
C1299       C  0.61660939  0.65133936  0.43775924    -0.08800
C1300       C  0.59442426  0.62542719  0.43654258    -0.06200
C1301       C  0.60400204  0.59369174  0.42792771    -0.00300
C1302       C  0.63691615  0.58755314  0.41886290    -0.08700
C1303       C  0.64881754  0.55415513  0.40677087     0.61700
H1304       H  0.68426882  0.60802835  0.41434936     0.12400
H1305       H  0.56924870  0.62959816  0.44390286     0.12400
C1306       C  0.60396732  0.68464482  0.44796549     0.61900
F1307       F  0.67956283  0.55504172  0.38959014    -0.23300
F1308       F  0.62844587  0.54065051  0.37653590    -0.20600
F1309       F  0.64986489  0.53473333  0.44250827    -0.20300
F1310       F  0.61080231  0.70536123  0.41469220    -0.20300
F1311       F  0.61813631  0.69545100  0.48529924    -0.20700
F1312       F  0.57085044  0.68489773  0.45393767    -0.23300
C1313       C  0.60769551  0.89203678  0.41552104    -0.06200
C1314       C  0.60250671  0.89941921  0.45863877    -0.00200
C1315       C  0.61925776  0.88193490  0.49064424    -0.08800
C1316       C  0.64262633  0.85932995  0.47808733    -0.06200
C1317       C  0.64934095  0.85363824  0.43495334    -0.00300
C1318       C  0.63079314  0.86915136  0.40303053    -0.08700
C1319       C  0.63487271  0.86107236  0.35614542     0.61700
H1320       H  0.59399740  0.90498230  0.39155297     0.12400
H1321       H  0.65642279  0.84636198  0.50194666     0.12400
C1322       C  0.61206460  0.88643903  0.53768813     0.61900
F1323       F  0.61094684  0.87492410  0.33127346    -0.23300
F1324       F  0.63326696  0.82809555  0.35041104    -0.20600
F1325       F  0.66439513  0.87224500  0.34206891    -0.20300
F1326       F  0.57918411  0.88389834  0.54448025    -0.20300
F1327       F  0.62272343  0.91634080  0.55090964    -0.20700
F1328       F  0.62723239  0.86339099  0.56256439    -0.23300
C1329       C  0.61530249  0.11211091  0.53351886    -0.06200
C1330       C  0.60108727  0.10005229  0.57087555    -0.00200
C1331       C  0.61120371  0.11206779  0.61107496    -0.08800
C1332       C  0.63547090  0.13595660  0.61233417    -0.06200
C1333       C  0.64953020  0.14804564  0.57482855    -0.00300
C1334       C  0.63954454  0.13580694  0.53479251    -0.08700
C1335       C  0.65553058  0.14671237  0.49382226     0.61700
H1336       H  0.60749484  0.10234827  0.50309364     0.12400
H1337       H  0.64389898  0.14526645  0.64271092     0.12400
C1338       C  0.59730066  0.09893591  0.65226705     0.61900
F1339       F  0.64428783  0.12981379  0.45866855    -0.23300
F1340       F  0.68853115  0.14201691  0.49672378    -0.20600
F1341       F  0.64928798  0.17895203  0.48726602    -0.20300
F1342       F  0.60160556  0.06595547  0.65390069    -0.20300
F1343       F  0.56471041  0.10579422  0.65423975    -0.20700
F1344       F  0.61204187  0.11233246  0.68783975    -0.23300
C1345       C  0.47880527  0.01089337  0.79003906    -0.06200
C1346       C  0.50166851  0.99113253  0.81035660    -0.00200
C1347       C  0.52492671  0.97483967  0.78545282    -0.08800
C1348       C  0.52395260  0.97840847  0.74067143    -0.06200
C1349       C  0.50110772  0.99831832  0.72024839    -0.00300
C1350       C  0.47800562  0.01475254  0.74538583    -0.08700
C1351       C  0.45210179  0.03559017  0.72525698     0.61700
H1352       H  0.46156594  0.02360358  0.80975942     0.12400
H1353       H  0.54133251  0.96577288  0.72109685     0.12400
C1354       C  0.55136336  0.95490774  0.80621507     0.61900
F1355       F  0.43054302  0.04725343  0.75518965    -0.23300
F1356       F  0.43487486  0.01777451  0.69559567    -0.20600
F1357       F  0.46629038  0.06164793  0.70545144    -0.20300
F1358       F  0.53791443  0.92872869  0.82675727    -0.20300
F1359       F  0.56807927  0.97349640  0.83559687    -0.20700
F1360       F  0.57330149  0.94354570  0.77658629    -0.23300
C1361       C  0.47389977  0.98743900  0.24141820    -0.06200
C1362       C  0.49889338  0.00338728  0.21965520    -0.00200
C1363       C  0.52444549  0.01733687  0.24353425    -0.08800
C1364       C  0.52435000  0.01441698  0.28840531    -0.06200
C1365       C  0.49941905  0.99841014  0.31012842    -0.00300
C1366       C  0.47332273  0.98533532  0.28639831    -0.08700
C1367       C  0.44435129  0.97058012  0.30861679     0.61700
H1368       H  0.45455367  0.97683354  0.22274216     0.12400
H1369       H  0.54366423  0.02506320  0.30709733     0.12400
C1370       C  0.55151494  0.03547593  0.22174614     0.61900
F1371       F  0.42030164  0.96204551  0.27994720    -0.23300
F1372       F  0.43148717  0.99254569  0.33709388    -0.20600
F1373       F  0.45360545  0.94322777  0.33047709    -0.20300
F1374       F  0.53914610  0.06332926  0.20417519    -0.20300
F1375       F  0.56499270  0.01675758  0.18992143    -0.20700
F1376       F  0.57586544  0.04391849  0.25001350    -0.23300
C1377       C  0.60674655  0.88406348  0.91566195    -0.06200
C1378       C  0.60398083  0.89501971  0.95792616    -0.00200
C1379       C  0.62287903  0.88017593  0.99036688    -0.08800
C1380       C  0.64517905  0.85612386  0.97886561    -0.06200
C1381       C  0.64901726  0.84644854  0.93639448    -0.00300
C1382       C  0.62907154  0.85997662  0.90426727    -0.08700
C1383       C  0.63104379  0.84853561  0.85831664     0.61700
H1384       H  0.59171889  0.89507801  0.89138686     0.12400
H1385       H  0.66050945  0.84523010  0.00291100     0.12400
C1386       C  0.61930356  0.88915341  0.03707948     0.61900
F1387       F  0.60752870  0.86252480  0.83292066    -0.23300
F1388       F  0.62689351  0.81551902  0.85673412    -0.20600
F1389       F  0.66080276  0.85632984  0.84146701    -0.20300
F1390       F  0.58702257  0.88898786  0.04830488    -0.20300
F1391       F  0.63217261  0.91938413  0.04407993    -0.20700
F1392       F  0.63527636  0.86772337  0.06353014    -0.23300
C1393       C  0.61676198  0.10925344  0.02608403    -0.06200
C1394       C  0.60528524  0.09589191  0.06429194    -0.00200
C1395       C  0.61814299  0.10636658  0.10374130    -0.08800
C1396       C  0.64194870  0.13044041  0.10365029    -0.06200
C1397       C  0.65329002  0.14402619  0.06552276    -0.00300
C1398       C  0.64070455  0.13330356  0.02594708    -0.08700
C1399       C  0.65334581  0.14617577  0.98394710     0.61700
H1400       H  0.60692506  0.10038284  0.99620250     0.12400
H1401       H  0.65211879  0.13883839  0.13357807     0.12400
C1402       C  0.60729099  0.09172262  0.14552351     0.61900
F1403       F  0.63938277  0.13079232  0.94924623    -0.23300
F1404       F  0.68638186  0.14164518  0.98188603    -0.20600
F1405       F  0.64650690  0.17858386  0.98077716    -0.20300
F1406       F  0.61091225  0.05865884  0.14412195    -0.20300
F1407       F  0.57525677  0.09921787  0.15214671    -0.20700
F1408       F  0.62500739  0.10325273  0.17987701    -0.23300
C1409       C  0.15080768  0.63825689  0.77355469    -0.06200
C1410       C  0.15227337  0.64991477  0.81532462    -0.00200
C1411       C  0.13037143  0.63841358  0.84625128    -0.08800
C1412       C  0.10826325  0.61417770  0.83452372    -0.06200
C1413       C  0.10732729  0.60154119  0.79288062    -0.00300
C1414       C  0.12843439  0.61443351  0.76142966    -0.08700
C1415       C  0.12694644  0.60414552  0.71497149     0.61700
H1416       H  0.16774476  0.64781253  0.75052625     0.12400
H1417       H  0.09170148  0.60463562  0.85801807     0.12400
C1418       C  0.12997931  0.65238354  0.89100137     0.61900
F1419       F  0.14585497  0.62359323  0.68927058    -0.23300
F1420       F  0.09549568  0.60608650  0.70025450    -0.20600
F1421       F  0.13804475  0.57299685  0.71086763    -0.20300
F1422       F  0.12416163  0.68510233  0.88878982    -0.20300
F1423       F  0.15942490  0.64726524  0.91075239    -0.20700
F1424       F  0.10618426  0.63856767  0.91594174    -0.23300
C1425       C  0.34149434  0.61674358  0.92126588    -0.06200
C1426       C  0.35114375  0.64883295  0.92848143    -0.00200
C1427       C  0.38402686  0.65483363  0.93969555    -0.08800
C1428       C  0.40560347  0.62863915  0.94233090    -0.06200
C1429       C  0.39551530  0.59681816  0.93555808    -0.00300
C1430       C  0.36285878  0.59071184  0.92444701    -0.08700
C1431       C  0.35013562  0.55699300  0.91559541     0.61700
H1432       H  0.31644316  0.61181543  0.91376198     0.12400
H1433       H  0.43051602  0.63266456  0.95154312     0.12400
C1434       C  0.39656571  0.68811075  0.95050652     0.61900
F1435       F  0.32015111  0.55758386  0.89587442    -0.23300
F1436       F  0.34691820  0.54042222  0.95355970    -0.20600
F1437       F  0.37101843  0.54066456  0.88889708    -0.20300
F1438       F  0.38216326  0.69837252  0.98781007    -0.20300
F1439       F  0.38990904  0.70917512  0.91751666    -0.20700
F1440       F  0.42965533  0.68842947  0.95711322    -0.23300
C1441       C  0.35640173  0.87394358  0.90654987    -0.06200
C1442       C  0.34467575  0.85778706  0.94282236    -0.00200
C1443       C  0.35785254  0.86495498  0.98346018    -0.08800
C1444       C  0.38267750  0.88802890  0.98622886    -0.06200
C1445       C  0.39450726  0.90386683  0.94990791    -0.00300
C1446       C  0.38118432  0.89703144  0.90943227    -0.08700
C1447       C  0.39246988  0.91479321  0.86995261     0.61700
H1448       H  0.34593641  0.86822745  0.87570770     0.12400
H1449       H  0.39309745  0.89405234  0.01700137     0.12400
C1450       C  0.34518844  0.84920603  0.02372462     0.61900
F1451       F  0.37530496  0.90561363  0.83392304    -0.23300
F1452       F  0.42478908  0.90847032  0.86294951    -0.20600
F1453       F  0.38833998  0.94754140  0.87565395    -0.20300
F1454       F  0.35316567  0.81698664  0.02376474    -0.20300
F1455       F  0.31197688  0.85236512  0.02564021    -0.20700
F1456       F  0.35821644  0.86302912  0.06016564    -0.23300
C1457       C  0.22466274  0.76853273  0.60146148    -0.06200
C1458       C  0.25075849  0.75315839  0.58098671    -0.00200
C1459       C  0.27430098  0.73754428  0.60659759    -0.08800
C1460       C  0.27101062  0.73829951  0.65135922    -0.06200
C1461       C  0.24494412  0.75362620  0.67186466    -0.00300
C1462       C  0.22117571  0.76897477  0.64631294    -0.08700
C1463       C  0.19251846  0.78624383  0.66591783     0.61700
H1464       H  0.20663763  0.78022813  0.58178444     0.12400
H1465       H  0.28901104  0.72649592  0.67096341     0.12400
C1466       C  0.30212932  0.71897495  0.58708890     0.61900
F1467       F  0.17412619  0.80203830  0.63550486    -0.23300
F1468       F  0.20319369  0.80889477  0.69515402    -0.20600
F1469       F  0.17273869  0.76421371  0.68604979    -0.20300
F1470       F  0.32287377  0.73996884  0.56671321    -0.20300
F1471       F  0.29018933  0.69674453  0.55818756    -0.20700
F1472       F  0.31983721  0.70240228  0.61746536    -0.23300
C1473       C  0.23227541  0.76793245  0.10158821    -0.06200
C1474       C  0.25370131  0.74671394  0.08124676    -0.00200
C1475       C  0.27189675  0.72482167  0.10611836    -0.08800
C1476       C  0.26794989  0.72514489  0.15081703    -0.06200
C1477       C  0.24672414  0.74667931  0.17122998    -0.00300
C1478       C  0.22868298  0.76861369  0.14617192    -0.08700
C1479       C  0.20690582  0.79364992  0.16631943     0.61700
H1480       H  0.21844721  0.78439960  0.08196915     0.12400
H1481       H  0.28182107  0.70871245  0.17042119     0.12400
C1482       C  0.29498870  0.70104836  0.08570608     0.61900
F1483       F  0.19346145  0.81408400  0.13627774    -0.23300
F1484       F  0.22464230  0.81209250  0.19476195    -0.20600
F1485       F  0.18189499  0.77862107  0.18746390    -0.20300
F1486       F  0.32010982  0.71752831  0.06667167    -0.20300
F1487       F  0.27892553  0.68293997  0.05520524    -0.20700
F1488       F  0.30807958  0.68010516  0.11541571    -0.23300
C1489       C  0.13857243  0.62818187  0.34485862    -0.06200
C1490       C  0.15115700  0.64607354  0.31070998    -0.00200
C1491       C  0.14041147  0.63953854  0.26856262    -0.08800
C1492       C  0.11708580  0.61525251  0.26221334    -0.06200
C1493       C  0.10410284  0.59790148  0.29652585    -0.00300
C1494       C  0.11498967  0.60423964  0.33853359    -0.08700
C1495       C  0.10227660  0.58526580  0.37629712     0.61700
H1496       H  0.14729179  0.63333483  0.37679220     0.12400
H1497       H  0.10850385  0.60976602  0.23031181     0.12400
C1498       C  0.15404767  0.65743637  0.23043626     0.61900
F1499       F  0.11833731  0.59305350  0.41375144    -0.23300
F1500       F  0.10623650  0.55266661  0.36904463    -0.20600
F1501       F  0.06986307  0.59176982  0.38195967    -0.20300
F1502       F  0.18742311  0.65603313  0.23106130    -0.20300
F1503       F  0.14436605  0.68921273  0.23172410    -0.20700
F1504       F  0.14347258  0.64437854  0.19217664    -0.23300
C1505       C  0.36332924  0.63344454  0.39354998    -0.06200
C1506       C  0.34828543  0.64649531  0.42976070    -0.00200
C1507       C  0.35668945  0.63506100  0.47080156    -0.08800
C1508       C  0.38052800  0.61118416  0.47426838    -0.06200
C1509       C  0.39567251  0.59823071  0.43811579    -0.00300
C1510       C  0.38686336  0.60918596  0.39695806    -0.08700
C1511       C  0.40090614  0.59416407  0.35690661     0.61700
H1512       H  0.35608997  0.64218133  0.36239066     0.12400
H1513       H  0.38739210  0.60213290  0.50541892     0.12400
C1514       C  0.33968397  0.64707920  0.51048417     0.61900
F1515       F  0.38581149  0.60534315  0.32034141    -0.23300
F1516       F  0.39705516  0.56110141  0.35821354    -0.20600
F1517       F  0.43337771  0.60144312  0.35398689    -0.20300
F1518       F  0.30665728  0.64339878  0.50568776    -0.20300
F1519       F  0.34693756  0.67919247  0.51676173    -0.20700
F1520       F  0.34906078  0.63031088  0.54661503    -0.23300
C1521       C  0.37495383  0.84622236  0.43826206    -0.06200
C1522       C  0.34266957  0.85533995  0.44424605    -0.00200
C1523       C  0.33573881  0.88780896  0.45476372    -0.08800
C1524       C  0.36140260  0.90999289  0.45750659    -0.06200
C1525       C  0.39396495  0.90120891  0.45100362    -0.00300
C1526       C  0.40075534  0.86835837  0.44128787    -0.08700
C1527       C  0.43468718  0.85623084  0.43326015     0.61700
H1528       H  0.37975866  0.82144631  0.42968330     0.12400
H1529       H  0.35589745  0.93481993  0.46488008     0.12400
C1530       C  0.30163939  0.89907614  0.46478554     0.61900
F1531       F  0.43560687  0.82327443  0.42678987    -0.23300
F1532       F  0.45425653  0.86303039  0.46798811    -0.20600
F1533       F  0.44656481  0.87074303  0.39692552    -0.20300
F1534       F  0.28775722  0.87865953  0.49436663    -0.20300
F1535       F  0.28308114  0.89955516  0.42804756    -0.20700
F1536       F  0.30132993  0.92983986  0.48179476    -0.23300
C1537       C  0.13845101  0.36581338  0.64259501    -0.06200
C1538       C  0.15151499  0.35238275  0.67996796    -0.00200
C1539       C  0.14047499  0.36300531  0.72027321    -0.08800
C1540       C  0.11686490  0.38726262  0.72172334    -0.06200
C1541       C  0.10375186  0.40060137  0.68436951    -0.00300
C1542       C  0.11449528  0.38974499  0.64408609    -0.08700
C1543       C  0.10163765  0.40429163  0.60310797     0.61700
H1544       H  0.14741300  0.35747097  0.61207888     0.12400
H1545       H  0.10838129  0.39613814  0.75221810     0.12400
C1546       C  0.15385884  0.34923425  0.76145337     0.61900
F1547       F  0.11699490  0.39202770  0.56745675    -0.23300
F1548       F  0.10635994  0.43722851  0.60378403    -0.20600
F1549       F  0.06905691  0.39771619  0.59927716    -0.20300
F1550       F  0.18716441  0.35180589  0.76204496    -0.20300
F1551       F  0.14514977  0.31730616  0.76450573    -0.20700
F1552       F  0.14196135  0.36502853  0.79699839    -0.23300
C1553       C  0.35946195  0.35629357  0.52828980    -0.06200
C1554       C  0.35211217  0.34932243  0.57087223    -0.00200
C1555       C  0.36955171  0.36482788  0.60409303    -0.08800
C1556       C  0.39209845  0.38886982  0.59344053    -0.06200
C1557       C  0.39774124  0.39753647  0.55087203    -0.00300
C1558       C  0.38235571  0.38000211  0.51761123    -0.08700
C1559       C  0.39101159  0.38534813  0.47116470     0.61700
H1560       H  0.34653051  0.34348639  0.50339111     0.12400
H1561       H  0.40491144  0.40171775  0.61840999     0.12400
C1562       C  0.36465798  0.35571920  0.65051598     0.61900
F1563       F  0.37659022  0.36278615  0.44467719    -0.23300
F1564       F  0.42408829  0.38286839  0.46625144    -0.20600
F1565       F  0.38095766  0.41547352  0.45825563    -0.20300
F1566       F  0.36676980  0.32267270  0.65506974    -0.20300
F1567       F  0.33468222  0.36601701  0.66394598    -0.20700
F1568       F  0.38771915  0.36958910  0.67683728    -0.23300
C1569       C  0.37906691  0.10498261  0.53324840    -0.06200
C1570       C  0.39320831  0.09389790  0.57144021    -0.00200
C1571       C  0.38299078  0.10696735  0.61082566    -0.08800
C1572       C  0.35906409  0.13101930  0.61050514    -0.06200
C1573       C  0.34529567  0.14227194  0.57225252    -0.00300
C1574       C  0.35516840  0.12900213  0.53301937    -0.08700
C1575       C  0.34007926  0.13985969  0.49140966     0.61700
H1576       H  0.38705056  0.09464945  0.50332651     0.12400
H1577       H  0.35078385  0.14129889  0.64032129     0.12400
C1578       C  0.39647454  0.09493535  0.65285211     0.61900
F1579       F  0.34998991  0.12116294  0.45730716    -0.23300
F1580       F  0.34894644  0.17133855  0.48364386    -0.20600
F1581       F  0.30679744  0.13779720  0.49396964    -0.20300
F1582       F  0.42858122  0.10356432  0.65620916    -0.20300
F1583       F  0.39368270  0.06181742  0.65477675    -0.20700
F1584       F  0.38023819  0.10779629  0.68745107    -0.23300
C1585       C  0.23397516  0.22790470  0.90242025    -0.06200
C1586       C  0.25605657  0.24849977  0.92319513    -0.00200
C1587       C  0.27634863  0.26848387  0.89831346    -0.08800
C1588       C  0.27271710  0.26808125  0.85357250    -0.06200
C1589       C  0.25033427  0.24781599  0.83286993    -0.00300
C1590       C  0.23140309  0.22649310  0.85758399    -0.08700
C1591       C  0.20999628  0.20117419  0.83685107     0.61700
H1592       H  0.21886345  0.21249721  0.92180857     0.12400
H1593       H  0.28775338  0.28349827  0.83411191     0.12400
C1594       C  0.30162508  0.29022616  0.91859365     0.61900
F1595       F  0.19736849  0.18005611  0.86660207    -0.23300
F1596       F  0.22782456  0.18339213  0.80795736    -0.20600
F1597       F  0.18453081  0.21574104  0.81587472    -0.20300
F1598       F  0.32525256  0.27158239  0.93757282    -0.20300
F1599       F  0.28754524  0.30981492  0.94900283    -0.20700
F1600       F  0.31645918  0.30982425  0.88880717    -0.23300
C1601       C  0.23265292  0.27283402  0.40161075    -0.06200
C1602       C  0.25163549  0.24958488  0.42263875    -0.00200
C1603       C  0.26748855  0.22583301  0.39781091    -0.08800
C1604       C  0.26382070  0.22632888  0.35302515    -0.06200
C1605       C  0.24473387  0.24945199  0.33213907    -0.00300
C1606       C  0.22929541  0.27346863  0.35674464    -0.08700
C1607       C  0.21017456  0.30015281  0.33560123     0.61700
H1608       H  0.22047879  0.29077197  0.42079455     0.12400
H1609       H  0.27613760  0.20859801  0.33365420     0.12400
C1610       C  0.28761450  0.19963036  0.41833401     0.61900
F1611       F  0.20035378  0.32323315  0.36466690    -0.23300
F1612       F  0.18300562  0.28724898  0.31642177    -0.20600
F1613       F  0.22893270  0.31524105  0.30511561    -0.20300
F1614       F  0.26936584  0.18348466  0.44836242    -0.20300
F1615       F  0.31432278  0.21325956  0.43773552    -0.20700
F1616       F  0.29840062  0.17732323  0.38877153    -0.23300
C1617       C  0.13173117  0.36543342  0.13843909    -0.06200
C1618       C  0.14493723  0.35142859  0.17547727    -0.00200
C1619       C  0.13373279  0.36151170  0.21596724    -0.08800
C1620       C  0.10972092  0.38538982  0.21805791    -0.06200
C1621       C  0.09685338  0.39965863  0.18118090    -0.00300
C1622       C  0.10775525  0.38952129  0.14059093    -0.08700
C1623       C  0.09507348  0.40503476  0.10005349     0.61700
H1624       H  0.14081378  0.35767875  0.10772361     0.12400
H1625       H  0.10121574  0.39374707  0.24879572     0.12400
C1626       C  0.14825735  0.34831977  0.25678200     0.61900
F1627       F  0.11086703  0.39377573  0.06415865    -0.23300
F1628       F  0.09939704  0.43802003  0.10207516    -0.20600
F1629       F  0.06256254  0.39834701  0.09542220    -0.20300
F1630       F  0.18120406  0.35381524  0.25710145    -0.20300
F1631       F  0.14237808  0.31567907  0.25920804    -0.20700
F1632       F  0.13524749  0.36266255  0.29272337    -0.23300
C1633       C  0.38516443  0.39843827  0.09381640    -0.06200
C1634       C  0.39600910  0.40060906  0.05175480    -0.00200
C1635       C  0.38415679  0.37936932  0.02017900    -0.08800
C1636       C  0.36004751  0.35730173  0.03148737    -0.06200
C1637       C  0.34777686  0.35617710  0.07313952    -0.00300
C1638       C  0.36111136  0.37634676  0.10531324    -0.08700
C1639       C  0.35041106  0.37455473  0.15153942     0.61700
H1640       H  0.39519597  0.41478255  0.11738429     0.12400
H1641       H  0.35003005  0.34122563  0.00759811     0.12400
C1642       C  0.39703852  0.38013697  0.97492869     0.61900
F1643       F  0.37100890  0.39148428  0.17831931    -0.23300
F1644       F  0.34999032  0.34288874  0.16508518    -0.20600
F1645       F  0.31992223  0.38763329  0.15539136    -0.20300
F1646       F  0.43031814  0.37736054  0.97558316    -0.20300
F1647       F  0.38863014  0.40887671  0.95578373    -0.20700
F1648       F  0.38474559  0.35520681  0.95039499    -0.23300
C1649       C  0.34055084  0.11579080  0.06803902    -0.06200
C1650       C  0.35081492  0.14804157  0.06939340    -0.00200
C1651       C  0.38458483  0.15438641  0.07178229    -0.08800
C1652       C  0.40646585  0.12826460  0.07074999    -0.06200
C1653       C  0.39593770  0.09608897  0.06914447    -0.00300
C1654       C  0.36216555  0.08980702  0.06968251    -0.08700
C1655       C  0.34836469  0.05604845  0.07433514     0.61700
H1656       H  0.31488560  0.11084806  0.06663259     0.12400
H1657       H  0.43219538  0.13289649  0.07038966     0.12400
C1658       C  0.39783878  0.18828625  0.07551442     0.61900
F1659       F  0.31626696  0.05667128  0.08658690    -0.23300
F1660       F  0.36526578  0.03940076  0.10541150    -0.20600
F1661       F  0.35011579  0.03978307  0.03591091    -0.20300
F1662       F  0.38348707  0.20417471  0.10931330    -0.20300
F1663       F  0.39185583  0.20454192  0.03793120    -0.20700
F1664       F  0.43086517  0.18856247  0.08257920    -0.23300
C1665       C  0.85493370  0.14458092  0.72228992    -0.06200
C1666       C  0.85192947  0.15344711  0.67942293    -0.00200
C1667       C  0.87235163  0.13961607  0.64833594    -0.08800
C1668       C  0.89472350  0.11620809  0.66126720    -0.06200
C1669       C  0.89645158  0.10582595  0.70376279    -0.00300
C1670       C  0.87669154  0.12056943  0.73513784    -0.08700
C1671       C  0.87836071  0.11113586  0.78185225     0.61700
H1672       H  0.83908923  0.15576388  0.74540540     0.12400
H1673       H  0.91024506  0.10487171  0.63790760     0.12400
C1674       C  0.87042720  0.14947421  0.60180952     0.61900
F1675       F  0.86130510  0.13222833  0.80751312    -0.23300
F1676       F  0.91012506  0.11120931  0.79553428    -0.20600
F1677       F  0.86524324  0.08084350  0.78712329    -0.20300
F1678       F  0.87430922  0.18242635  0.59839707    -0.20300
F1679       F  0.84075136  0.14077118  0.58512219    -0.20700
F1680       F  0.89411984  0.13480035  0.57755178    -0.23300
C1681       C  0.89199999  0.88282079  0.84190389    -0.06200
C1682       C  0.88875055  0.90283652  0.80598658    -0.00200
C1683       C  0.86409228  0.89591642  0.77542465    -0.08800
C1684       C  0.84294910  0.87004463  0.78303024    -0.06200
C1685       C  0.84573931  0.85099970  0.81953405    -0.00300
C1686       C  0.87071606  0.85704804  0.84931685    -0.08700
C1687       C  0.87438008  0.83654691  0.88902272     0.61700
H1688       H  0.91094979  0.88799902  0.86481408     0.12400
H1689       H  0.82339183  0.86491506  0.76097419     0.12400
C1690       C  0.85961394  0.91550824  0.73498554     0.61900
F1691       F  0.90080751  0.84570787  0.91338514    -0.23300
F1692       F  0.87840366  0.80471128  0.87738845    -0.20600
F1693       F  0.84704022  0.83937339  0.91393419    -0.20300
F1694       F  0.88882070  0.91904586  0.71422386    -0.20300
F1695       F  0.84720779  0.94534426  0.74535350    -0.20700
F1696       F  0.83833785  0.90092355  0.70675505    -0.23300
C1697       C  0.12993341  0.91282666  0.82298151    -0.06200
C1698       C  0.09769580  0.90217266  0.82129297    -0.00200
C1699       C  0.09156538  0.86845804  0.82036150    -0.08800
C1700       C  0.11802236  0.84704340  0.82188377    -0.06200
C1701       C  0.15015966  0.85800796  0.82323625    -0.00300
C1702       C  0.15620495  0.89161797  0.82254396    -0.08700
C1703       C  0.19010265  0.90556585  0.81952185     0.61700
H1704       H  0.13464199  0.93845594  0.82388353     0.12400
H1705       H  0.11373465  0.82135034  0.82278147     0.12400
C1706       C  0.05763162  0.85478127  0.81758707     0.61900
F1707       F  0.18967004  0.93759673  0.80745675    -0.23300
F1708       F  0.20766881  0.88893609  0.78918209    -0.20600
F1709       F  0.20541477  0.90367044  0.85872191    -0.20300
F1710       F  0.04175290  0.86711135  0.78230435    -0.20300
F1711       F  0.04099738  0.86256281  0.85427488    -0.20700
F1712       F  0.05763958  0.82156973  0.81384870    -0.23300
C1713       C  0.15918789  0.11206398  0.68391228    -0.06200
C1714       C  0.15065609  0.14467859  0.68957548    -0.00200
C1715       C  0.11779464  0.15191458  0.69926318    -0.08800
C1716       C  0.09551690  0.12642014  0.70359266    -0.06200
C1717       C  0.10442388  0.09407987  0.69859131    -0.00300
C1718       C  0.13677247  0.08673911  0.68775473    -0.08700
C1719       C  0.14772109  0.05247093  0.67909396     0.61700
H1720       H  0.18400898  0.10622427  0.67655726     0.12400
H1721       H  0.07076081  0.13154942  0.71224061     0.12400
C1722       C  0.10574368  0.18597237  0.70594202     0.61900
F1723       F  0.17789570  0.05157844  0.66022706    -0.23300
F1724       F  0.12619640  0.03741424  0.65169087    -0.20600
F1725       F  0.14951672  0.03556838  0.71698379    -0.20300
F1726       F  0.11304098  0.20479153  0.67087877    -0.20300
F1727       F  0.11994063  0.19838540  0.74230559    -0.20700
F1728       F  0.07261493  0.18722157  0.71161408    -0.23300
C1729       C  0.01682777  0.98310484  0.53655867    -0.06200
C1730       C  0.99873253  0.00744498  0.55665660    -0.00200
C1731       C  0.98066710  0.02903148  0.53102611    -0.08800
C1732       C  0.98150010  0.02533598  0.48627231    -0.06200
C1733       C  0.99951315  0.00087332  0.46613352    -0.00300
C1734       C  0.01756788  0.97933356  0.49187779    -0.08700
C1735       C  0.03797528  0.95277000  0.47263888     0.61700
H1736       H  0.03040107  0.96664585  0.55647567     0.12400
H1737       H  0.96785168  0.04176639  0.46641449     0.12400
C1738       C  0.96008285  0.05545290  0.55049359     0.61900
F1739       F  0.05637937  0.93704160  0.50310917    -0.23300
F1740       F  0.05882371  0.96562161  0.44279732    -0.20600
F1741       F  0.01810661  0.93024108  0.45340036    -0.20300
F1742       F  0.97978409  0.07793355  0.57015095    -0.20300
F1743       F  0.93910987  0.04250978  0.58016562    -0.20700
F1744       F  0.94176979  0.07127897  0.52001213    -0.23300
C1745       C  0.01114332  0.97759678  0.03526300    -0.06200
C1746       C  0.99570862  0.00339338  0.05614837    -0.00200
C1747       C  0.97793899  0.02580834  0.03139201    -0.08800
C1748       C  0.97722803  0.02201213  0.98664876    -0.06200
C1749       C  0.99320907  0.99655626  0.96575925    -0.00300
C1750       C  0.01008566  0.97358359  0.99060393    -0.08700
C1751       C  0.02735926  0.94522093  0.97038637     0.61700
H1752       H  0.02423621  0.96032143  0.05449682     0.12400
H1753       H  0.96424402  0.03931288  0.96731676     0.12400
C1754       C  0.95936236  0.05330865  0.05174503     0.61900
F1755       F  0.04488253  0.92775283  0.00008061    -0.23300
F1756       F  0.04858793  0.95593065  0.93951335    -0.20600
F1757       F  0.00493656  0.92473766  0.95203777    -0.20300
F1758       F  0.98077417  0.07504519  0.06961328    -0.20300
F1759       F  0.93900909  0.04158887  0.08302529    -0.20700
F1760       F  0.94062267  0.06968187  0.02223986    -0.23300
C1761       C  0.89487359  0.11147320  0.15980945    -0.06200
C1762       C  0.89818433  0.10166706  0.20238131    -0.00200
C1763       C  0.87998018  0.11720865  0.23463340    -0.08800
C1764       C  0.85734487  0.14076626  0.22261269    -0.06200
C1765       C  0.85256791  0.14902113  0.17971951    -0.00300
C1766       C  0.87219815  0.13495897  0.14778765    -0.08700
C1767       C  0.86960719  0.14512057  0.10139991     0.61700
H1768       H  0.90969212  0.09992909  0.13583862     0.12400
H1769       H  0.84236749  0.15215153  0.24654698     0.12400
C1770       C  0.88440192  0.10908078  0.28149758     0.61900
F1771       F  0.89251231  0.13012151  0.07619705    -0.23300
F1772       F  0.87415882  0.17799523  0.09826968    -0.20600
F1773       F  0.83952511  0.13722062  0.08543156    -0.20300
F1774       F  0.91691310  0.10838677  0.29181246    -0.20300
F1775       F  0.87079368  0.07938885  0.28977109    -0.20700
F1776       F  0.86975715  0.13157183  0.30765716    -0.23300
C1777       C  0.86632268  0.86688607  0.36031690    -0.06200
C1778       C  0.85110599  0.85442547  0.32361872    -0.00200
C1779       C  0.86096897  0.86527358  0.28285165    -0.08800
C1780       C  0.88507704  0.88901479  0.28032100    -0.06200
C1781       C  0.89982468  0.90185185  0.31693233    -0.00300
C1782       C  0.89091832  0.89028951  0.35769645    -0.08700
C1783       C  0.90655851  0.90327080  0.39812615     0.61700
H1784       H  0.85863749  0.85812527  0.39120827     0.12400
H1785       H  0.89250432  0.89809793  0.24947512     0.12400
C1786       C  0.84530282  0.85288272  0.24227783     0.61900
F1787       F  0.89186718  0.89140616  0.43447109    -0.23300
F1788       F  0.90433430  0.93647423  0.39905033    -0.20600
F1789       F  0.93870513  0.89443762  0.39937445    -0.20300
F1790       F  0.81230994  0.85757774  0.24427548    -0.20300
F1791       F  0.85181227  0.82051226  0.23766807    -0.20700
F1792       F  0.85672485  0.86853751  0.20636270    -0.23300
C1793       C  0.11772045  0.89171321  0.27875376    -0.06200
C1794       C  0.10594391  0.90523092  0.31680560    -0.00200
C1795       C  0.11709005  0.89354705  0.35646132    -0.08800
C1796       C  0.14006181  0.86866278  0.35664022    -0.06200
C1797       C  0.15198387  0.85518088  0.31859797    -0.00300
C1798       C  0.14051926  0.86663866  0.27892226    -0.08700
C1799       C  0.15295178  0.85318493  0.23719073     0.61700
H1800       H  0.10882034  0.90109294  0.24868505     0.12400
H1801       H  0.14922478  0.85961530  0.38675326     0.12400
C1802       C  0.10571861  0.90810517  0.39812653     0.61900
F1803       F  0.13972832  0.86876938  0.20223331    -0.23300
F1804       F  0.14498573  0.82099776  0.23425034    -0.20600
F1805       F  0.18612022  0.85668341  0.23554579    -0.20300
F1806       F  0.07302400  0.90268854  0.40283702    -0.20300
F1807       F  0.11163906  0.94086207  0.39804294    -0.20700
F1808       F  0.12142608  0.89488865  0.43300922    -0.23300
C1809       C  0.12414589  0.09569133  0.16085130    -0.06200
C1810       C  0.10528662  0.09834025  0.19744516    -0.00200
C1811       C  0.11044718  0.12414827  0.22620139    -0.08800
C1812       C  0.13514948  0.14639822  0.21759744    -0.06200
C1813       C  0.15483079  0.14353807  0.18142834    -0.00300
C1814       C  0.14877208  0.11797044  0.15182969    -0.08700
C1815       C  0.16750807  0.11394268  0.11051945     0.61700
H1816       H  0.11962653  0.07556961  0.13962231     0.12400
H1817       H  0.13965292  0.16600202  0.23963917     0.12400
C1818       C  0.09017989  0.12791498  0.26609707     0.61900
F1819       F  0.15384655  0.09084810  0.08411126    -0.23300
F1820       F  0.19873949  0.10432745  0.11957329    -0.20600
F1821       F  0.16781440  0.14263071  0.08819399    -0.20300
F1822       F  0.09450308  0.10151741  0.29220656    -0.20300
F1823       F  0.05794895  0.13039666  0.25494819    -0.20700
F1824       F  0.09857245  0.15514050  0.28914814    -0.23300
loop_ 
_geom_bond_atom_site_label_1 
_geom_bond_atom_site_label_2 
_geom_bond_distance 
_geom_bond_site_symmetry_2 
_ccdc_geom_bond_type 
Zr1           O2   2.443   1_455  S
Zr1           O3   2.471   1_455  S
Zr1           O4   2.463       .  S
Zr1           O7   2.440   1_455  S
Zr1           O9   2.379       .  S
Zr1          O10   2.388   1_455  S
Zr1          O11   2.416       .  S
Zr1          O12   2.411   1_455  S
O2           H58   0.990   1_655  S
O2           H66   0.991   1_655  S
O3           C23   1.289       .  A
O4           C25   1.287       .  A
O5          Zr15   2.426       .  S
O5           C24   1.283       .  A
O6          Zr14   2.423       .  S
O6           C25   1.282       .  A
O7           C24   1.286       .  A
O8          Zr16   2.396       .  S
O8           C23   1.277   1_565  A
O9          Zr14   2.402       .  S
O9          Zr16   2.387   1_445  S
O10         Zr15   2.398       .  S
O10         Zr16   2.376   1_545  S
O10          H45   0.966       .  S
O11         Zr14   2.396       .  S
O11         Zr31   2.381       .  S
O11          H48   0.962       .  S
O12         Zr15   2.383       .  S
O12         Zr31   2.388   1_655  S
Zr13         O38   2.440   1_455  S
Zr13         O32   2.470       .  S
Zr13         O40   2.444   1_455  S
Zr13         O28   2.469       .  S
Zr13         O19   2.406   1_455  S
Zr13         O20   2.413       .  S
Zr13         O21   2.381   1_565  S
Zr13         O22   2.390   1_465  S
Zr14         O33   2.434       .  S
Zr14         O26   2.436   1_545  S
Zr14         O27   2.414   1_545  S
Zr14         O20   2.400   1_545  S
Zr14         O21   2.398       .  S
Zr15         O17   2.435       .  S
Zr15         O39   2.438   1_545  S
Zr15         O41   2.428   1_545  S
Zr15         O19   2.384   1_545  S
Zr15         O22   2.391       .  S
Zr16         O42   2.436       .  S
Zr16         O43   2.436       .  S
Zr16         O18   2.438   1_655  S
Zr16         O19   2.380       .  S
Zr16         O20   2.379   1_655  S
O17          H54   0.990       .  S
O18          H49   0.990       .  S
O18          H63   0.990       .  S
O20          H46   0.964       .  S
O21         Zr31   2.388       .  S
O22         Zr31   2.378   1_655  S
O22          H47   0.966       .  S
C23        C1746   1.494       .  S
C24        C1762   1.477       .  S
C25        C1810   1.471       .  S
O26          H62   0.990       .  S
O27          C29   1.282       .  A
O28          C29   1.289       .  A
C29        C1794   1.477       .  S
O30         Zr31   2.440       .  S
O30          H59   0.990       .  S
Zr31         O34   2.437       .  S
Zr31         O35   2.439   1_455  S
Zr31         O36   2.402   1_455  S
O32          C37   1.290   1_565  A
O33          H50   0.990       .  S
O33          H65   0.989       .  S
O34          H51   0.990       .  S
O35          H55   0.990       .  S
O35          H64   0.989       .  S
O36          C37   1.278   1_655  A
C37        C1733   1.497   1_455  S
O38          H57   0.991   1_655  S
O38          H61   0.989   1_655  S
O39          H53   0.990       .  S
O39          H60   0.990       .  S
O40          C44   1.285       .  A
O41          C44   1.285       .  A
O42          H52   0.990       .  S
O43          H56   0.990       .  S
C44        C1781   1.478       .  S
Zr67         O68   2.442       .  S
Zr67         O69   2.468       .  S
Zr67         O70   2.459   1_655  S
Zr67         O73   2.440       .  S
Zr67         O75   2.377   1_655  S
Zr67         O76   2.386       .  S
Zr67         O77   2.415   1_655  S
Zr67         O78   2.410       .  S
O68         H124   0.990   1_655  S
O68         H132   0.991   1_655  S
O69          C89   1.289       .  A
O70          C91   1.288       .  A
O71         Zr81   2.418       .  S
O71          C90   1.281       .  A
O72         Zr80   2.427   1_545  S
O72          C91   1.282       .  A
O73          C90   1.286       .  A
O74         Zr82   2.398       .  S
O74          C89   1.277   1_565  A
O75         Zr80   2.395   1_545  S
O75         Zr82   2.384   1_445  S
O76         Zr81   2.399       .  S
O76         Zr82   2.375   1_545  S
O76         H111   0.965       .  S
O77         Zr80   2.394   1_545  S
O77         Zr97   2.391   1_455  S
O77         H114   0.964       .  S
O78         Zr81   2.383       .  S
O78         Zr97   2.384       .  S
Zr79        O104   2.441       .  S
Zr79         O98   2.473       .  S
Zr79        O106   2.461       .  S
Zr79         O94   2.474   1_655  S
Zr79         O85   2.405       .  S
Zr79         O86   2.416   1_655  S
Zr79         O87   2.386   1_655  S
Zr79         O88   2.388   1_565  S
Zr80         O99   2.436   1_565  S
Zr80         O92   2.434       .  S
Zr80         O93   2.412       .  S
Zr80         O86   2.400       .  S
Zr80         O87   2.396       .  S
Zr81         O83   2.435       .  S
Zr81        O105   2.439   1_545  S
Zr81        O107   2.420   1_545  S
Zr81         O85   2.388   1_545  S
Zr81         O88   2.394       .  S
Zr82        O108   2.436       .  S
Zr82        O109   2.436       .  S
Zr82         O84   2.438   1_655  S
Zr82         O85   2.381       .  S
Zr82         O86   2.381   1_655  S
O83         H120   0.990       .  S
O84         H115   0.990       .  S
O84         H129   0.990       .  S
O86         H112   0.964       .  S
O87         Zr97   2.385   1_465  S
O88         Zr97   2.377       .  S
O88         H113   0.966       .  S
C89        C1730   1.493       .  S
C90        C1669   1.475       .  S
C91        C1717   1.491       .  S
O92         H128   0.990       .  S
O93          C95   1.284       .  A
O94          C95   1.291       .  A
C95        C1698   1.497       .  S
O96         Zr97   2.440       .  S
O96         H125   0.990       .  S
Zr97        O100   2.436   1_655  S
Zr97        O101   2.441       .  S
Zr97        O102   2.398       .  S
O98         C103   1.290       .  A
O99         H116   0.990       .  S
O99         H131   0.990       .  S
O100        H117   0.990       .  S
O101        H121   0.988       .  S
O101        H130   0.990       .  S
O102        C103   1.278   1_545  A
C103       C1749   1.493       .  S
O104        H123   0.990       .  S
O104        H127   0.991       .  S
O105        H119   0.990   1_565  S
O105        H126   0.990   1_565  S
O106        C110   1.289       .  A
O107        C110   1.281       .  A
O108        H118   0.990       .  S
O109        H122   0.990       .  S
C110       C1682   1.490       .  S
Zr133       O134   2.437       .  S
Zr133       O135   2.465   1_554  S
Zr133       O136   2.482       .  S
Zr133       O139   2.435       .  S
Zr133       O141   2.377       .  S
Zr133       O142   2.392       .  S
Zr133       O143   2.413       .  S
Zr133       O144   2.411       .  S
O134        H190   0.990       .  S
O134        H198   0.990       .  S
O135        C155   1.288       .  A
O136        C157   1.292       .  A
O137       Zr147   2.414       .  S
O137        C156   1.280       .  A
O138       Zr146   2.423       .  S
O138        C157   1.284       .  A
O139        C156   1.284       .  A
O140       Zr148   2.399   1_556  S
O140        C155   1.278       .  A
O141       Zr146   2.392       .  S
O141       Zr148   2.386       .  S
O142       Zr147   2.401       .  S
O142       Zr148   2.374       .  S
O142        H177   0.966       .  S
O143       Zr146   2.394       .  S
O143       Zr163   2.377       .  S
O143        H180   0.963       .  S
O144       Zr147   2.389       .  S
O144       Zr163   2.388       .  S
Zr145       O170   2.440       .  S
Zr145       O164   2.481       .  S
Zr145       O172   2.473       .  S
Zr145       O160   2.473       .  S
Zr145       O151   2.401       .  S
Zr145       O152   2.423       .  S
Zr145       O153   2.385       .  S
Zr145       O154   2.388       .  S
Zr146       O165   2.436       .  S
Zr146       O158   2.436       .  S
Zr146       O159   2.408       .  S
Zr146       O152   2.403       .  S
Zr146       O153   2.399       .  S
Zr147       O149   2.435       .  S
Zr147       O171   2.440       .  S
Zr147       O173   2.427       .  S
Zr147       O151   2.378       .  S
Zr147       O154   2.396       .  S
Zr148       O174   2.436       .  S
Zr148       O175   2.436       .  S
Zr148       O150   2.436       .  S
Zr148       O151   2.379       .  S
Zr148       O152   2.381       .  S
O149        H186   0.990       .  S
O150        H181   0.990   1_554  S
O150        H195   0.990       .  S
O152        H178   0.963       .  S
O153       Zr163   2.382       .  S
O154       Zr163   2.385       .  S
O154        H179   0.966       .  S
C155       C1586   1.489       .  S
C156       C1637   1.471       .  S
C157       C1650   1.502       .  S
O158        H194   0.990       .  S
O159        C161   1.278       .  A
O160        C161   1.292       .  A
C161       C1813   1.490       .  S
O162       Zr163   2.439       .  S
O162        H191   0.990       .  S
Zr163       O166   2.438       .  S
Zr163       O167   2.440       .  S
Zr163       O168   2.397       .  S
O164        C169   1.292       .  A
O165        H182   0.990       .  S
O165        H197   0.990       .  S
O166        H183   0.990       .  S
O167        H187   0.990       .  S
O167        H196   0.989       .  S
O168        C169   1.277       .  A
C169       C1605   1.490       .  S
O170        H189   0.990       .  S
O170        H193   0.990       .  S
O171        H185   0.990       .  S
O171        H192   0.990       .  S
O172        C176   1.292       .  A
O173        C176   1.284       .  A
O174        H184   0.990       .  S
O175        H188   0.990       .  S
C176       C1618   1.487       .  S
Zr199       O200   2.441       .  S
Zr199       O201   2.474       .  S
Zr199       O202   2.475       .  S
Zr199       O205   2.456       .  S
Zr199       O207   2.384       .  S
Zr199       O208   2.391       .  S
Zr199       O209   2.414       .  S
Zr199       O210   2.408       .  S
O200        H256   0.990       .  S
O200        H264   0.991       .  S
O201        C221   1.290       .  A
O202        C223   1.290       .  A
O203       Zr213   2.420       .  S
O203        C222   1.282       .  A
O204       Zr212   2.418       .  S
O204        C223   1.281       .  A
O205        C222   1.289       .  A
O206       Zr214   2.414       .  S
O206        C221   1.280       .  A
O207       Zr212   2.400       .  S
O207       Zr214   2.388       .  S
O208       Zr213   2.400       .  S
O208       Zr214   2.374       .  S
O208        H243   0.966       .  S
O209       Zr212   2.404       .  S
O209       Zr229   2.373       .  S
O209        H246   0.963       .  S
O210       Zr213   2.386       .  S
O210       Zr229   2.384       .  S
Zr211       O236   2.433       .  S
Zr211       O230   2.471       .  S
Zr211       O238   2.463       .  S
Zr211       O226   2.475       .  S
Zr211       O217   2.406       .  S
Zr211       O218   2.418       .  S
Zr211       O219   2.377       .  S
Zr211       O220   2.390       .  S
Zr212       O231   2.436       .  S
Zr212       O224   2.436       .  S
Zr212       O225   2.426       .  S
Zr212       O218   2.394       .  S
Zr212       O219   2.397       .  S
Zr213       O215   2.436       .  S
Zr213       O237   2.440       .  S
Zr213       O239   2.418       .  S
Zr213       O217   2.382       .  S
Zr213       O220   2.400       .  S
Zr214       O240   2.438       .  S
Zr214       O241   2.435       .  S
Zr214       O216   2.435       .  S
Zr214       O217   2.382       .  S
Zr214       O218   2.390       .  S
O215        H252   0.990       .  S
O216        H247   0.990       .  S
O216        H261   0.990       .  S
O218        H244   0.964       .  S
O219       Zr229   2.387       .  S
O220       Zr229   2.379       .  S
O220        H245   0.966       .  S
C221       C1602   1.497       .  S
C222       C1554   1.479       .  S
C223       C1573   1.477       .  S
O224        H260   0.990       .  S
O225        C227   1.286       .  A
O226        C227   1.291       .  A
C227       C1714   1.509       .  S
O228       Zr229   2.439       .  S
O228        H257   0.990       .  S
Zr229       O232   2.438       .  S
Zr229       O233   2.439       .  S
Zr229       O234   2.395       .  S
O230        C235   1.288       .  A
O231        H248   0.990       .  S
O231        H263   0.990       .  S
O232        H249   0.990       .  S
O233        H253   0.990       .  S
O233        H262   0.989       .  S
O234        C235   1.276       .  A
C235       C1589   1.487       .  S
O236        H255   0.988       .  S
O236        H259   0.990       .  S
O237        H251   0.990       .  S
O237        H258   0.990       .  S
O238        C242   1.287       .  A
O239        C242   1.282       .  A
O240        H250   0.990       .  S
O241        H254   0.991       .  S
C242       C1538   1.477       .  S
Zr265       O266   2.441       .  S
Zr265       O267   2.468       .  S
Zr265       O268   2.466       .  S
Zr265       O271   2.456       .  S
Zr265       O273   2.380       .  S
Zr265       O274   2.391       .  S
Zr265       O275   2.415       .  S
Zr265       O276   2.406       .  S
O266        H322   0.990       .  S
O266        H330   0.991       .  S
O267        C287   1.289       .  A
O268        C289   1.290       .  A
O269       Zr279   2.415       .  S
O269        C288   1.282       .  A
O270       Zr278   2.421       .  S
O270        C289   1.280       .  A
O271        C288   1.288       .  A
O272       Zr280   2.405       .  S
O272        C287   1.278       .  A
O273       Zr278   2.398       .  S
O273       Zr280   2.385       .  S
O274       Zr279   2.398       .  S
O274       Zr280   2.375       .  S
O274        H309   0.966       .  S
O275       Zr278   2.394       .  S
O275       Zr295   2.384       .  S
O275        H312   0.964       .  S
O276       Zr279   2.387       .  S
O276       Zr295   2.384       .  S
Zr277       O302   2.440       .  S
Zr277       O296   2.466       .  S
Zr277       O304   2.450       .  S
Zr277       O292   2.476       .  S
Zr277       O283   2.408       .  S
Zr277       O284   2.413       .  S
Zr277       O285   2.382       .  S
Zr277       O286   2.386       .  S
Zr278       O297   2.436       .  S
Zr278       O290   2.435       .  S
Zr278       O291   2.407       .  S
Zr278       O284   2.402       .  S
Zr278       O285   2.397       .  S
Zr279       O281   2.436       .  S
Zr279       O303   2.437       .  S
Zr279       O305   2.423       .  S
Zr279       O283   2.382       .  S
Zr279       O286   2.391       .  S
Zr280       O306   2.437       .  S
Zr280       O307   2.435       .  S
Zr280       O282   2.436       .  S
Zr280       O283   2.387       .  S
Zr280       O284   2.385       .  S
O281        H318   0.990       .  S
O282        H313   0.990       .  S
O282        H327   0.990       .  S
O284        H310   0.964       .  S
O285       Zr295   2.388       .  S
O286       Zr295   2.380       .  S
O286        H311   0.966       .  S
C287       C1458   1.501       .  S
C288       C1506   1.476       .  S
C289       C1522   1.492       .  S
O290        H326   0.990       .  S
O291        C293   1.280       .  A
O292        C293   1.290       .  A
C293       C1797   1.480       .  S
O294       Zr295   2.438       .  S
O294        H323   0.990       .  S
Zr295       O298   2.438       .  S
Zr295       O299   2.439       .  S
Zr295       O300   2.399       .  S
O296        C301   1.289       .  A
O297        H314   0.990       .  S
O297        H329   0.990       .  S
O298        H315   0.990       .  S
O299        H319   0.990       .  S
O299        H328   0.990       .  S
O300        C301   1.277       .  A
C301       C1477   1.487       .  S
O302        H321   0.990       .  S
O302        H325   0.989       .  S
O303        H317   0.990       .  S
O303        H324   0.990       .  S
O304        C308   1.287       .  A
O305        C308   1.283       .  A
O306        H316   0.990       .  S
O307        H320   0.990       .  S
C308       C1490   1.482       .  S
Zr331       O332   2.433       .  S
Zr331       O333   2.466   1_556  S
Zr331       O334   2.468       .  S
Zr331       O337   2.463       .  S
Zr331       O339   2.382       .  S
Zr331       O340   2.390       .  S
Zr331       O341   2.415       .  S
Zr331       O342   2.407       .  S
O332        H388   0.989       .  S
O332        H396   0.990       .  S
O333        C353   1.288       .  A
O334        C355   1.287       .  A
O335       Zr345   2.418       .  S
O335        C354   1.284       .  A
O336       Zr344   2.416       .  S
O336        C355   1.281       .  A
O337        C354   1.288       .  A
O338       Zr346   2.394   1_554  S
O338        C353   1.277       .  A
O339       Zr344   2.396       .  S
O339       Zr346   2.385       .  S
O340       Zr345   2.394       .  S
O340       Zr346   2.379       .  S
O340        H375   0.965       .  S
O341       Zr344   2.400       .  S
O341       Zr361   2.383       .  S
O341        H378   0.964       .  S
O342       Zr345   2.383       .  S
O342       Zr361   2.388       .  S
Zr343       O368   2.441       .  S
Zr343       O362   2.474       .  S
Zr343       O370   2.454       .  S
Zr343       O358   2.464       .  S
Zr343       O349   2.408       .  S
Zr343       O350   2.412       .  S
Zr343       O351   2.382       .  S
Zr343       O352   2.387       .  S
Zr344       O363   2.435       .  S
Zr344       O356   2.437       .  S
Zr344       O357   2.413       .  S
Zr344       O350   2.394       .  S
Zr344       O351   2.397       .  S
Zr345       O347   2.437       .  S
Zr345       O369   2.439       .  S
Zr345       O371   2.415       .  S
Zr345       O349   2.389       .  S
Zr345       O352   2.394       .  S
Zr346       O372   2.436       .  S
Zr346       O373   2.435       .  S
Zr346       O348   2.438       .  S
Zr346       O349   2.385       .  S
Zr346       O350   2.373       .  S
O347        H384   0.990       .  S
O348        H379   0.990   1_556  S
O348        H393   0.990       .  S
O350        H376   0.964       .  S
O351       Zr361   2.385       .  S
O352       Zr361   2.378       .  S
O352        H377   0.966       .  S
C353       C1474   1.483       .  S
C354       C1426   1.504       .  S
C355       C1442   1.480       .  S
O356        H392   0.990       .  S
O357        C359   1.280       .  A
O358        C359   1.290       .  A
C359       C1701   1.489       .  S
O360       Zr361   2.438       .  S
O360        H389   0.990       .  S
Zr361       O364   2.437       .  S
Zr361       O365   2.439       .  S
Zr361       O366   2.403       .  S
O362        C367   1.290       .  A
O363        H380   0.990       .  S
O363        H395   0.990       .  S
O364        H381   0.990       .  S
O365        H385   0.990       .  S
O365        H394   0.990       .  S
O366        C367   1.279       .  A
C367       C1461   1.500       .  S
O368        H387   0.990       .  S
O368        H391   0.991       .  S
O369        H383   0.990       .  S
O369        H390   0.990       .  S
O370        C374   1.286       .  A
O371        C374   1.281       .  A
O372        H382   0.990       .  S
O373        H386   0.990       .  S
C374       C1410   1.471       .  S
Zr397       O398   2.442       .  S
Zr397       O399   2.466       .  S
Zr397       O400   2.465       .  S
Zr397       O403   2.452       .  S
Zr397       O405   2.381       .  S
Zr397       O406   2.388       .  S
Zr397       O407   2.416   1_556  S
Zr397       O408   2.411   1_556  S
O398        H454   0.990       .  S
O398        H462   0.991       .  S
O399        C419   1.289       .  A
O400        C421   1.288       .  A
O401       Zr411   2.432   1_556  S
O401        C420   1.284       .  A
O402       Zr410   2.414   1_556  S
O402        C421   1.280       .  A
O403        C420   1.288       .  A
O404       Zr412   2.399       .  S
O404        C419   1.277   1_545  A
O405       Zr410   2.398   1_556  S
O405       Zr412   2.385   1_565  S
O406       Zr411   2.398   1_556  S
O406       Zr412   2.379   1_565  S
O406        H441   0.966       .  S
O407       Zr410   2.397       .  S
O407       Zr427   2.385       .  S
O407        H444   0.964       .  S
O408       Zr411   2.385       .  S
O408       Zr427   2.396       .  S
Zr409       O434   2.441       .  S
Zr409       O428   2.471       .  S
Zr409       O436   2.465       .  S
Zr409       O424   2.479       .  S
Zr409       O415   2.406       .  S
Zr409       O416   2.415       .  S
Zr409       O417   2.379   1_545  S
Zr409       O418   2.395   1_545  S
Zr410       O429   2.435       .  S
Zr410       O422   2.435   1_564  S
Zr410       O423   2.412   1_565  S
Zr410       O416   2.397   1_565  S
Zr410       O417   2.392       .  S
Zr411       O413   2.435       .  S
Zr411       O435   2.439   1_564  S
Zr411       O437   2.414   1_565  S
Zr411       O415   2.389   1_565  S
Zr411       O418   2.402       .  S
Zr412       O438   2.437       .  S
Zr412       O439   2.436       .  S
Zr412       O414   2.437       .  S
Zr412       O415   2.381   1_556  S
Zr412       O416   2.383   1_556  S
O413        H450   0.990       .  S
O414        H445   0.990       .  S
O414        H459   0.990       .  S
O416        H442   0.964       .  S
O417       Zr427   2.383       .  S
O418       Zr427   2.383       .  S
O418        H443   0.966       .  S
C419       C1346   1.484       .  S
C420       C1378   1.489       .  S
C421       C1445   1.473       .  S
O422        H458   0.990       .  S
O423        C425   1.280       .  A
O424        C425   1.293       .  A
C425       C1653   1.497       .  S
O426       Zr427   2.439       .  S
O426        H455   0.990       .  S
Zr427       O430   2.438       .  S
Zr427       O431   2.439       .  S
Zr427       O432   2.411       .  S
O428        C433   1.290       .  A
O429        H446   0.990       .  S
O429        H461   0.990       .  S
O430        H447   0.990       .  S
O431        H451   0.990       .  S
O431        H460   0.989       .  S
O432        C433   1.279   1_565  A
C433       C1362   1.491       .  S
O434        H453   0.989       .  S
O434        H457   0.990       .  S
O435        H449   0.990       .  S
O435        H456   0.990   1_545  S
O436        C440   1.289       .  A
O437        C440   1.281       .  A
O438        H448   0.990       .  S
O439        H452   0.990       .  S
C440       C1394   1.474       .  S
Zr463       O464   2.436       .  S
Zr463       O465   2.468       .  S
Zr463       O466   2.483       .  S
Zr463       O469   2.450       .  S
Zr463       O471   2.379       .  S
Zr463       O472   2.391       .  S
Zr463       O473   2.415       .  S
Zr463       O474   2.408       .  S
O464        H520   0.989       .  S
O464        H528   0.989       .  S
O465        C485   1.288       .  A
O466        C487   1.292       .  A
O467       Zr477   2.434       .  S
O467        C486   1.284       .  A
O468       Zr476   2.423       .  S
O468        C487   1.284       .  A
O469        C486   1.287       .  A
O470       Zr478   2.409       .  S
O470        C485   1.278   1_545  A
O471       Zr476   2.403       .  S
O471       Zr478   2.389   1_565  S
O472       Zr477   2.399       .  S
O472       Zr478   2.376   1_565  S
O472        H507   0.966       .  S
O473       Zr476   2.396       .  S
O473       Zr493   2.391       .  S
O473        H510   0.964       .  S
O474       Zr477   2.381       .  S
O474       Zr493   2.381       .  S
Zr475       O500   2.439       .  S
Zr475       O494   2.476       .  S
Zr475       O502   2.460       .  S
Zr475       O490   2.482       .  S
Zr475       O481   2.409       .  S
Zr475       O482   2.419       .  S
Zr475       O483   2.382   1_545  S
Zr475       O484   2.393   1_545  S
Zr476       O495   2.437       .  S
Zr476       O488   2.434   1_565  S
Zr476       O489   2.417   1_565  S
Zr476       O482   2.405   1_565  S
Zr476       O483   2.394       .  S
Zr477       O479   2.434       .  S
Zr477       O501   2.441   1_565  S
Zr477       O503   2.422   1_565  S
Zr477       O481   2.383   1_565  S
Zr477       O484   2.398       .  S
Zr478       O504   2.436       .  S
Zr478       O505   2.436       .  S
Zr478       O480   2.437       .  S
Zr478       O481   2.385       .  S
Zr478       O482   2.382       .  S
O479        H516   0.990       .  S
O480        H511   0.990       .  S
O480        H525   0.990       .  S
O482        H508   0.963       .  S
O483       Zr493   2.387       .  S
O484       Zr493   2.380       .  S
O484        H509   0.966   1_565  S
C485       C1365   1.489       .  S
C486       C1314   1.479       .  S
C487       C1525   1.511       .  S
O488        H524   0.990       .  S
O489        C491   1.282       .  A
O490        C491   1.292       .  A
C491       C1570   1.483       .  S
O492       Zr493   2.438       .  S
O492        H521   0.990       .  S
Zr493       O496   2.438       .  S
Zr493       O497   2.439       .  S
Zr493       O498   2.401       .  S
O494        C499   1.291   1_545  A
O495        H512   0.990       .  S
O495        H527   0.990       .  S
O496        H513   0.990       .  S
O497        H517   0.990       .  S
O497        H526   0.989       .  S
O498        C499   1.277       .  A
C499       C1349   1.491       .  S
O500        H519   0.990       .  S
O500        H523   0.989       .  S
O501        H515   0.990       .  S
O501        H522   0.990   1_545  S
O502        C506   1.288       .  A
O503        C506   1.283       .  A
O504        H514   0.990       .  S
O505        H518   0.990       .  S
C506       C1330   1.482       .  S
Zr529       O530   2.436       .  S
Zr529       O531   2.468       .  S
Zr529       O532   2.495       .  S
Zr529       O535   2.441       .  S
Zr529       O537   2.381       .  S
Zr529       O538   2.394       .  S
Zr529       O539   2.414       .  S
Zr529       O540   2.411       .  S
O530        H586   0.989       .  S
O530        H594   0.989       .  S
O531        C551   1.288       .  A
O532        C553   1.294       .  A
O533       Zr543   2.431       .  S
O533        C552   1.284       .  A
O534       Zr542   2.419       .  S
O534        C553   1.283       .  A
O535        C552   1.285       .  A
O536       Zr544   2.400       .  S
O536        C551   1.278       .  A
O537       Zr542   2.396       .  S
O537       Zr544   2.391       .  S
O538       Zr543   2.399       .  S
O538       Zr544   2.374       .  S
O538        H573   0.966       .  S
O539       Zr542   2.397       .  S
O539       Zr559   2.388       .  S
O539        H576   0.963       .  S
O540       Zr543   2.389       .  S
O540       Zr559   2.384       .  S
Zr541       O566   2.441       .  S
Zr541       O560   2.461       .  S
Zr541       O568   2.460       .  S
Zr541       O556   2.450       .  S
Zr541       O547   2.402       .  S
Zr541       O548   2.413       .  S
Zr541       O549   2.381       .  S
Zr541       O550   2.389       .  S
Zr542       O561   2.436       .  S
Zr542       O554   2.435       .  S
Zr542       O555   2.418       .  S
Zr542       O548   2.396       .  S
Zr542       O549   2.396       .  S
Zr543       O545   2.436       .  S
Zr543       O567   2.440       .  S
Zr543       O569   2.432       .  S
Zr543       O547   2.388       .  S
Zr543       O550   2.402       .  S
Zr544       O570   2.437       .  S
Zr544       O571   2.436       .  S
Zr544       O546   2.436       .  S
Zr544       O547   2.382       .  S
Zr544       O548   2.385       .  S
O545        H582   0.990       .  S
O546        H577   0.990       .  S
O546        H591   0.990       .  S
O548        H574   0.965       .  S
O549       Zr559   2.382       .  S
O550       Zr559   2.381       .  S
O550        H575   0.966       .  S
C551       C1250   1.488       .  S
C552       C1317   1.474       .  S
C553       C1298   1.516       .  S
O554        H590   0.990       .  S
O555        C557   1.280       .  A
O556        C557   1.288       .  A
C557       C1282   1.487       .  S
O558       Zr559   2.439       .  S
O558        H587   0.990       .  S
Zr559       O562   2.439       .  S
Zr559       O563   2.438       .  S
Zr559       O564   2.406       .  S
O560        C565   1.288       .  A
O561        H578   0.990       .  S
O561        H593   0.990       .  S
O562        H579   0.990       .  S
O563        H583   0.990       .  S
O563        H592   0.989       .  S
O564        C565   1.279       .  A
C565       C1269   1.493       .  S
O566        H585   0.989       .  S
O566        H589   0.991       .  S
O567        H581   0.990       .  S
O567        H588   0.990       .  S
O568        C572   1.288       .  A
O569        C572   1.285       .  A
O570        H580   0.990       .  S
O571        H584   0.990       .  S
C572       C1778   1.484       .  S
Zr595       O596   2.439       .  S
Zr595       O597   2.475   1_556  S
Zr595       O598   2.478       .  S
Zr595       O601   2.459       .  S
Zr595       O603   2.382       .  S
Zr595       O604   2.389       .  S
Zr595       O605   2.415       .  S
Zr595       O606   2.410       .  S
O596        H652   0.989       .  S
O596        H660   0.990       .  S
O597        C617   1.291       .  A
O598        C619   1.292       .  A
O599       Zr609   2.419       .  S
O599        C618   1.282       .  A
O600       Zr608   2.419       .  S
O600        C619   1.282       .  A
O601        C618   1.289       .  A
O602       Zr610   2.395   1_554  S
O602        C617   1.277       .  A
O603       Zr608   2.398       .  S
O603       Zr610   2.382       .  S
O604       Zr609   2.397       .  S
O604       Zr610   2.380       .  S
O604        H639   0.966       .  S
O605       Zr608   2.402       .  S
O605       Zr625   2.376       .  S
O605        H642   0.964       .  S
O606       Zr609   2.389       .  S
O606       Zr625   2.393       .  S
Zr607       O632   2.441       .  S
Zr607       O626   2.474       .  S
Zr607       O634   2.450       .  S
Zr607       O622   2.470       .  S
Zr607       O613   2.406       .  S
Zr607       O614   2.416       .  S
Zr607       O615   2.380       .  S
Zr607       O616   2.388       .  S
Zr608       O627   2.436       .  S
Zr608       O620   2.437       .  S
Zr608       O621   2.418       .  S
Zr608       O614   2.399       .  S
Zr608       O615   2.399       .  S
Zr609       O611   2.435       .  S
Zr609       O633   2.438       .  S
Zr609       O635   2.420       .  S
Zr609       O613   2.383       .  S
Zr609       O616   2.392       .  S
Zr610       O636   2.436       .  S
Zr610       O637   2.435       .  S
Zr610       O612   2.437       .  S
Zr610       O613   2.386       .  S
Zr610       O614   2.379       .  S
O611        H648   0.990       .  S
O612        H643   0.990   1_556  S
O612        H657   0.990       .  S
O614        H640   0.964       .  S
O615       Zr625   2.384       .  S
O616       Zr625   2.382       .  S
O616        H641   0.966       .  S
C617       C1266   1.495       .  S
C618       C1381   1.480       .  S
C619       C1234   1.484       .  S
O620        H656   0.990       .  S
O621        C623   1.281       .  A
O622        C623   1.290       .  A
C623       C1218   1.476       .  S
O624       Zr625   2.439       .  S
O624        H653   0.990       .  S
Zr625       O628   2.439       .  S
Zr625       O629   2.438       .  S
Zr625       O630   2.400       .  S
O626        C631   1.291       .  A
O627        H644   0.990       .  S
O627        H659   0.990       .  S
O628        H645   0.990       .  S
O629        H649   0.990       .  S
O629        H658   0.989       .  S
O630        C631   1.277       .  A
C631       C1253   1.493       .  S
O632        H651   0.991       .  S
O632        H655   0.990       .  S
O633        H647   0.990       .  S
O633        H654   0.990       .  S
O634        C638   1.286       .  A
O635        C638   1.282       .  A
O636        H646   0.990       .  S
O637        H650   0.990       .  S
C638       C1685   1.472       .  S
Zr661       O662   2.441       .  S
Zr661       O663   2.469   1_554  S
Zr661       O664   2.469       .  S
Zr661       O667   2.455       .  S
Zr661       O669   2.380       .  S
Zr661       O670   2.392       .  S
Zr661       O671   2.419       .  S
Zr661       O672   2.405       .  S
O662        H718   0.990   1_554  S
O662        H726   0.991       .  S
O663        C683   1.289       .  A
O664        C685   1.290       .  A
O665       Zr675   2.416       .  S
O665        C684   1.282       .  A
O666       Zr674   2.400       .  S
O666        C685   1.277       .  A
O667        C684   1.288       .  A
O668       Zr676   2.406   1_556  S
O668        C683   1.278       .  A
O669       Zr674   2.399       .  S
O669       Zr676   2.385       .  S
O670       Zr675   2.398       .  S
O670       Zr676   2.375       .  S
O670        H705   0.966       .  S
O671       Zr674   2.397       .  S
O671       Zr691   2.387       .  S
O671        H708   0.964       .  S
O672       Zr675   2.381       .  S
O672       Zr691   2.380       .  S
Zr673       O698   2.441       .  S
Zr673       O692   2.465       .  S
Zr673       O700   2.457       .  S
Zr673       O688   2.478       .  S
Zr673       O679   2.411       .  S
Zr673       O680   2.415       .  S
Zr673       O681   2.377       .  S
Zr673       O682   2.393       .  S
Zr674       O693   2.437       .  S
Zr674       O686   2.433       .  S
Zr674       O687   2.409       .  S
Zr674       O680   2.393       .  S
Zr674       O681   2.389       .  S
Zr675       O677   2.435       .  S
Zr675       O699   2.439       .  S
Zr675       O701   2.419       .  S
Zr675       O679   2.389       .  S
Zr675       O682   2.399       .  S
Zr676       O702   2.435       .  S
Zr676       O703   2.435       .  S
Zr676       O678   2.438       .  S
Zr676       O679   2.390       .  S
Zr676       O680   2.382       .  S
O677        H714   0.990       .  S
O678        H709   0.990   1_554  S
O678        H723   0.990       .  S
O680        H706   0.963       .  S
O681       Zr691   2.386       .  S
O682       Zr691   2.384       .  S
O682        H707   0.966       .  S
C683       C1154   1.491       .  S
C684       C1397   1.475       .  S
C685       C1202   1.482       .  S
O686        H722   0.990       .  S
O687        C689   1.281       .  A
O688        C689   1.292       .  A
C689       C1186   1.498       .  S
O690       Zr691   2.439       .  S
O690        H719   0.990       .  S
Zr691       O694   2.437       .  S
Zr691       O695   2.440       .  S
Zr691       O696   2.402       .  S
O692        C697   1.288       .  A
O693        H710   0.990       .  S
O693        H725   0.990       .  S
O694        H711   0.990       .  S
O695        H715   0.990       .  S
O695        H724   0.990       .  S
O696        C697   1.278       .  A
C697       C1170   1.489       .  S
O698        H717   0.991       .  S
O698        H721   0.990       .  S
O699        H713   0.990       .  S
O699        H720   0.990       .  S
O700        C704   1.286       .  A
O701        C704   1.281       .  A
O702        H712   0.990   1_554  S
O703        H716   0.990       .  S
C704       C1765   1.476       .  S
Zr727       O728   2.442       .  S
Zr727       O729   2.467       .  S
Zr727       O730   2.453       .  S
Zr727       O733   2.462       .  S
Zr727       O735   2.385       .  S
Zr727       O736   2.387       .  S
Zr727       O737   2.421       .  S
Zr727       O738   2.400       .  S
O728        H784   0.990       .  S
O728        H792   0.991       .  S
O729        C749   1.288       .  A
O730        C751   1.286       .  A
O731       Zr741   2.424       .  S
O731        C750   1.283       .  A
O732       Zr740   2.415       .  S
O732        C751   1.281       .  A
O733        C750   1.289       .  A
O734       Zr742   2.404       .  S
O734        C749   1.278       .  A
O735       Zr740   2.399       .  S
O735       Zr742   2.381       .  S
O736       Zr741   2.398       .  S
O736       Zr742   2.381       .  S
O736        H771   0.966       .  S
O737       Zr740   2.401       .  S
O737       Zr757   2.385       .  S
O737        H774   0.964       .  S
O738       Zr741   2.382       .  S
O738       Zr757   2.387       .  S
Zr739       O764   2.442       .  S
Zr739       O758   2.471       .  S
Zr739       O766   2.433       .  S
Zr739       O754   2.462       .  S
Zr739       O745   2.409       .  S
Zr739       O746   2.415       .  S
Zr739       O747   2.380       .  S
Zr739       O748   2.385       .  S
Zr740       O759   2.437       .  S
Zr740       O752   2.437       .  S
Zr740       O753   2.420       .  S
Zr740       O746   2.399       .  S
Zr740       O747   2.400       .  S
Zr741       O743   2.436       .  S
Zr741       O765   2.439       .  S
Zr741       O767   2.421       .  S
Zr741       O745   2.388       .  S
Zr741       O748   2.394       .  S
Zr742       O768   2.434       .  S
Zr742       O769   2.435       .  S
Zr742       O744   2.438       .  S
Zr742       O745   2.389       .  S
Zr742       O746   2.385       .  S
O743        H780   0.990       .  S
O744        H775   0.990       .  S
O744        H789   0.990       .  S
O746        H772   0.964       .  S
O747       Zr757   2.383       .  S
O748       Zr757   2.379       .  S
O748        H773   0.966       .  S
C749       C1173   1.492       .  S
C750       C1333   1.481       .  S
C751       C1141   1.467       .  S
O752        H788   0.990       .  S
O753        C755   1.282       .  A
O754        C755   1.287       .  A
C755       C1122   1.480       .  S
O756       Zr757   2.439       .  S
O756        H785   0.990       .  S
Zr757       O760   2.437       .  S
Zr757       O761   2.438       .  S
Zr757       O762   2.407       .  S
O758        C763   1.290       .  A
O759        H776   0.990       .  S
O759        H791   0.990       .  S
O760        H777   0.990       .  S
O761        H781   0.990       .  S
O761        H790   0.990       .  S
O762        C763   1.279       .  A
C763       C1157   1.494       .  S
O764        H783   0.991       .  S
O764        H787   0.989       .  S
O765        H779   0.990       .  S
O765        H786   0.990       .  S
O766        C770   1.283       .  A
O767        C770   1.282       .  A
O768        H778   0.989       .  S
O769        H782   0.990       .  S
C770       C1666   1.467       .  S
Zr793       O794   2.435       .  S
Zr793       O795   2.471       .  S
Zr793       O796   2.475       .  S
Zr793       O799   2.429       .  S
Zr793       O801   2.376       .  S
Zr793       O802   2.387       .  S
Zr793       O803   2.417   1_554  S
Zr793       O804   2.413   1_554  S
O794        H850   0.989       .  S
O794        H858   0.989       .  S
O795        C815   1.288       .  A
O796        C817   1.290       .  A
O797       Zr807   2.416   1_554  S
O797        C816   1.280       .  A
O798       Zr806   2.411   1_554  S
O798        C817   1.282       .  A
O799        C816   1.282       .  A
O800       Zr808   2.399       .  S
O800        C815   1.278       .  A
O801       Zr806   2.400   1_554  S
O801       Zr808   2.390       .  S
O802       Zr807   2.393   1_554  S
O802       Zr808   2.372       .  S
O802        H837   0.966       .  S
O803       Zr806   2.392       .  S
O803       Zr823   2.392       .  S
O803        H840   0.964       .  S
O804       Zr807   2.380       .  S
O804       Zr823   2.389       .  S
Zr805       O830   2.441       .  S
Zr805       O824   2.463       .  S
Zr805       O832   2.465       .  S
Zr805       O820   2.467       .  S
Zr805       O811   2.406       .  S
Zr805       O812   2.414       .  S
Zr805       O813   2.384       .  S
Zr805       O814   2.390       .  S
Zr806       O825   2.435       .  S
Zr806       O818   2.435   1_556  S
Zr806       O819   2.409       .  S
Zr806       O812   2.398       .  S
Zr806       O813   2.391       .  S
Zr807       O809   2.435       .  S
Zr807       O831   2.440   1_556  S
Zr807       O833   2.402       .  S
Zr807       O811   2.390       .  S
Zr807       O814   2.396       .  S
Zr808       O834   2.434       .  S
Zr808       O835   2.435       .  S
Zr808       O810   2.437       .  S
Zr808       O811   2.387   1_554  S
Zr808       O812   2.373   1_554  S
O809        H846   0.990       .  S
O810        H841   0.990       .  S
O810        H855   0.990       .  S
O812        H838   0.963       .  S
O813       Zr823   2.383       .  S
O814       Zr823   2.379       .  S
O814        H839   0.966       .  S
C815       C1109   1.493       .  S
C816       C1634   1.459       .  S
C817       C1205   1.505       .  S
O818        H854   0.990       .  S
O819        C821   1.280       .  A
O820        C821   1.290       .  A
C821       C1237   1.470       .  S
O822       Zr823   2.438       .  S
O822        H851   0.990       .  S
Zr823       O826   2.438       .  S
Zr823       O827   2.441       .  S
Zr823       O828   2.410       .  S
O824        C829   1.288       .  A
O825        H842   0.990       .  S
O825        H857   0.990       .  S
O826        H843   0.990       .  S
O827        H847   0.990       .  S
O827        H856   0.989       .  S
O828        C829   1.279       .  A
C829       C1093   1.485       .  S
O830        H849   0.990       .  S
O830        H853   0.991       .  S
O831        H845   0.990       .  S
O831        H852   0.990       .  S
O832        C836   1.290       .  A
O833        C836   1.278       .  A
O834        H844   0.990       .  S
O835        H848   0.990       .  S
C836       C1429   1.484       .  S
Zr859       O860   2.441       .  S
Zr859       O861   2.469       .  S
Zr859       O862   2.469       .  S
Zr859       O865   2.448       .  S
Zr859       O867   2.380       .  S
Zr859       O868   2.391       .  S
Zr859       O869   2.415       .  S
Zr859       O870   2.406       .  S
O860        H916   0.989       .  S
O860        H924   0.990       .  S
O861        C881   1.289       .  A
O862        C883   1.289       .  A
O863       Zr873   2.439       .  S
O863        C882   1.286       .  A
O864       Zr872   2.408       .  S
O864        C883   1.281       .  A
O865        C882   1.287       .  A
O866       Zr874   2.403       .  S
O866        C881   1.277       .  A
O867       Zr872   2.400       .  S
O867       Zr874   2.385       .  S
O868       Zr873   2.396       .  S
O868       Zr874   2.380       .  S
O868        H903   0.966       .  S
O869       Zr872   2.399       .  S
O869       Zr889   2.388       .  S
O869        H906   0.964       .  S
O870       Zr873   2.377       .  S
O870       Zr889   2.381       .  S
Zr871       O896   2.441       .  S
Zr871       O890   2.467       .  S
Zr871       O898   2.444       .  S
Zr871       O886   2.479       .  S
Zr871       O877   2.409       .  S
Zr871       O878   2.411       .  S
Zr871       O879   2.378       .  S
Zr871       O880   2.397       .  S
Zr872       O891   2.436       .  S
Zr872       O884   2.433       .  S
Zr872       O885   2.417       .  S
Zr872       O878   2.395       .  S
Zr872       O879   2.391       .  S
Zr873       O875   2.436       .  S
Zr873       O897   2.438       .  S
Zr873       O899   2.417       .  S
Zr873       O877   2.389       .  S
Zr873       O880   2.401       .  S
Zr874       O900   2.435       .  S
Zr874       O901   2.436       .  S
Zr874       O876   2.438       .  S
Zr874       O877   2.383       .  S
Zr874       O878   2.380       .  S
O875        H912   0.990       .  S
O876        H907   0.990       .  S
O876        H921   0.990       .  S
O878        H904   0.964       .  S
O879       Zr889   2.387       .  S
O880       Zr889   2.381       .  S
O880        H905   0.966       .  S
C881       C1090   1.487       .  S
C882       C1557   1.483       .  S
C883       C1138   1.480       .  S
O884        H920   0.990       .  S
O885        C887   1.280       .  A
O886        C887   1.292       .  A
C887       C1301   1.493       .  S
O888       Zr889   2.440       .  S
O888        H917   0.990       .  S
Zr889       O892   2.438       .  S
Zr889       O893   2.441       .  S
Zr889       O894   2.408       .  S
O890        C895   1.289       .  A
O891        H908   0.990       .  S
O891        H923   0.989       .  S
O892        H909   0.990       .  S
O893        H913   0.990       .  S
O893        H922   0.989       .  S
O894        C895   1.280       .  A
C895       C1106   1.497       .  S
O896        H915   0.991       .  S
O896        H919   0.989       .  S
O897        H911   0.990       .  S
O897        H918   0.990       .  S
O898        C902   1.285       .  A
O899        C902   1.283       .  A
O900        H910   0.990       .  S
O901        H914   0.990       .  S
C902       C1509   1.475       .  S
Zr925       O926   2.434   1_655  S
Zr925       O927   2.469       .  S
Zr925       O928   2.481       .  S
Zr925       O931   2.447   1_655  S
Zr925       O933   2.377       .  S
Zr925       O934   2.392   1_655  S
Zr925       O935   2.416       .  S
Zr925       O936   2.408   1_655  S
O926        H982   0.988   1_455  S
O926        H990   0.989       .  S
O927        C947   1.288       .  A
O928        C949   1.292       .  A
O929       Zr939   2.426       .  S
O929        C948   1.283       .  A
O930       Zr938   2.411       .  S
O930        C949   1.282       .  A
O931        C948   1.286       .  A
O932       Zr940   2.404       .  S
O932        C947   1.278       .  A
O933       Zr938   2.399       .  S
O933       Zr940   2.385       .  S
O934       Zr939   2.399       .  S
O934       Zr940   2.378   1_455  S
O934        H969   0.966       .  S
O935       Zr938   2.401       .  S
O935       Zr955   2.391   1_655  S
O935        H972   0.964       .  S
O936       Zr939   2.386       .  S
O936       Zr955   2.389       .  S
Zr937       O962   2.441       .  S
Zr937       O956   2.464       .  S
Zr937       O964   2.460   1_655  S
Zr937       O952   2.465       .  S
Zr937       O943   2.410   1_655  S
Zr937       O944   2.412       .  S
Zr937       O945   2.382       .  S
Zr937       O946   2.389   1_655  S
Zr938       O957   2.436       .  S
Zr938       O950   2.436       .  S
Zr938       O951   2.417       .  S
Zr938       O944   2.395       .  S
Zr938       O945   2.396       .  S
Zr939       O941   2.438       .  S
Zr939       O963   2.436       .  S
Zr939       O965   2.424       .  S
Zr939       O943   2.391       .  S
Zr939       O946   2.398       .  S
Zr940       O966   2.438   1_655  S
Zr940       O967   2.435       .  S
Zr940       O942   2.437       .  S
Zr940       O943   2.390   1_655  S
Zr940       O944   2.377       .  S
O941        H978   0.990       .  S
O942        H973   0.990       .  S
O942        H987   0.990       .  S
O944        H970   0.964       .  S
O945       Zr955   2.384   1_655  S
O946       Zr955   2.379       .  S
O946        H971   0.966       .  S
C947       C1058   1.492       .  S
C948       C1493   1.477       .  S
C949       C1285   1.503       .  S
O950        H986   0.990       .  S
O951        C953   1.280       .  A
O952        C953   1.291       .  A
C953       C1189   1.496       .  S
O954       Zr955   2.439       .  S
O954        H983   0.991       .  S
Zr955       O958   2.438   1_455  S
Zr955       O959   2.440       .  S
Zr955       O960   2.409       .  S
O956        C961   1.288       .  A
O957        H974   0.990       .  S
O957        H989   0.990       .  S
O958        H975   0.990       .  S
O959        H979   0.990       .  S
O959        H988   0.990       .  S
O960        C961   1.279   1_455  A
C961       C1074   1.487   1_655  S
O962        H981   0.989   1_655  S
O962        H985   0.991       .  S
O963        H977   0.990       .  S
O963        H984   0.990       .  S
O964        C968   1.287       .  A
O965        C968   1.283       .  A
O966        H976   0.990       .  S
O967        H980   0.990       .  S
C968       C1621   1.481       .  S
Zr991       O992   2.441       .  S
Zr991       O993   2.469       .  S
Zr991       O994   2.475   1_455  S
Zr991       O997   2.455       .  S
Zr991       O999   2.382   1_455  S
Zr991      O1000   2.388       .  S
Zr991      O1001   2.417   1_455  S
Zr991      O1002   2.409       .  S
O992       H1048   0.989       .  S
O992       H1056   0.990   1_455  S
O993       C1013   1.289       .  A
O994       C1015   1.290       .  A
O995      Zr1005   2.426       .  S
O995       C1014   1.283       .  A
O996      Zr1004   2.412       .  S
O996       C1015   1.281       .  A
O997       C1014   1.289       .  A
O998      Zr1006   2.405       .  S
O998       C1013   1.278       .  A
O999      Zr1004   2.397       .  S
O999      Zr1006   2.382   1_655  S
O1000     Zr1005   2.399       .  S
O1000     Zr1006   2.379       .  S
O1000      H1035   0.966       .  S
O1001     Zr1004   2.399       .  S
O1001     Zr1021   2.387   1_655  S
O1001      H1038   0.964       .  S
O1002     Zr1005   2.385       .  S
O1002     Zr1021   2.390       .  S
Zr1003     O1028   2.440       .  S
Zr1003     O1022   2.461       .  S
Zr1003     O1030   2.456       .  S
Zr1003     O1018   2.467   1_455  S
Zr1003     O1009   2.403       .  S
Zr1003     O1010   2.416   1_455  S
Zr1003     O1011   2.379   1_455  S
Zr1003     O1012   2.391       .  S
Zr1004     O1023   2.436       .  S
Zr1004     O1016   2.436       .  S
Zr1004     O1017   2.407       .  S
Zr1004     O1010   2.399       .  S
Zr1004     O1011   2.394       .  S
Zr1005     O1007   2.435       .  S
Zr1005     O1029   2.438       .  S
Zr1005     O1031   2.418       .  S
Zr1005     O1009   2.384       .  S
Zr1005     O1012   2.398       .  S
Zr1006     O1032   2.435       .  S
Zr1006     O1033   2.435       .  S
Zr1006     O1008   2.437   1_455  S
Zr1006     O1009   2.383       .  S
Zr1006     O1010   2.384   1_455  S
O1007      H1044   0.990       .  S
O1008      H1039   0.990       .  S
O1008      H1053   0.990       .  S
O1010      H1036   0.964       .  S
O1011     Zr1021   2.379   1_655  S
O1012     Zr1021   2.383       .  S
O1012      H1037   0.966       .  S
C1013      C1077   1.488       .  S
C1014      C1413   1.488       .  S
C1015      C1221   1.486       .  S
O1016      H1052   0.990       .  S
O1017      C1019   1.280       .  A
O1018      C1019   1.289       .  A
C1019      C1125   1.473       .  S
O1020     Zr1021   2.439   1_655  S
O1020      H1049   0.990       .  S
Zr1021     O1024   2.437   1_455  S
Zr1021     O1025   2.439       .  S
Zr1021     O1026   2.406       .  S
O1022      C1027   1.287       .  A
O1023      H1040   0.990       .  S
O1023      H1055   0.990       .  S
O1024      H1041   0.990       .  S
O1025      H1045   0.990       .  S
O1025      H1054   0.989       .  S
O1026      C1027   1.278       .  A
C1027      C1061   1.490   1_455  S
O1028      H1047   0.990   1_455  S
O1028      H1051   0.990   1_455  S
O1029      H1043   0.990       .  S
O1029      H1050   0.990       .  S
O1030      C1034   1.288       .  A
O1031      C1034   1.282       .  A
O1032      H1042   0.990       .  S
O1033      H1046   0.990       .  S
C1034      C1541   1.476       .  S
C1057      C1058   1.409   1_455  A
C1057      C1062   1.409       .  A
C1057      H1064   1.083       .  S
C1058      C1059   1.418       .  A
C1059      C1060   1.410       .  A
C1059      C1066   1.518       .  S
C1060      C1061   1.407       .  A
C1060      H1065   1.083       .  S
C1061      C1062   1.417   1_655  A
C1062      C1063   1.517       .  S
C1063      F1067   1.385       .  S
C1063      F1068   1.382       .  S
C1063      F1069   1.382       .  S
C1066      F1070   1.383       .  S
C1066      F1071   1.381       .  S
C1066      F1072   1.385       .  S
C1073      C1074   1.407       .  A
C1073      C1078   1.411   1_554  A
C1073      H1080   1.083       .  S
C1074      C1075   1.417   1_455  A
C1075      C1076   1.411   1_554  A
C1075      C1082   1.519       .  S
C1076      C1077   1.407   1_655  A
C1076      H1081   1.083       .  S
C1077      C1078   1.417       .  A
C1078      C1079   1.519       .  S
C1079      F1083   1.385       .  S
C1079      F1084   1.382       .  S
C1079      F1085   1.384       .  S
C1082      F1086   1.383       .  S
C1082      F1087   1.382       .  S
C1082      F1088   1.385   1_554  S
C1089      C1090   1.406       .  A
C1089      C1094   1.410       .  A
C1089      H1096   1.083       .  S
C1090      C1091   1.416       .  A
C1091      C1092   1.409       .  A
C1091      C1098   1.513       .  S
C1092      C1093   1.405       .  A
C1092      H1097   1.083       .  S
C1093      C1094   1.416       .  A
C1094      C1095   1.517       .  S
C1095      F1099   1.385       .  S
C1095      F1100   1.382       .  S
C1095      F1101   1.383       .  S
C1098      F1102   1.384       .  S
C1098      F1103   1.380       .  S
C1098      F1104   1.385       .  S
C1105      C1106   1.410       .  A
C1105      C1110   1.412       .  A
C1105      H1112   1.083       .  S
C1106      C1107   1.420       .  A
C1107      C1108   1.410       .  A
C1107      C1114   1.519       .  S
C1108      C1109   1.408       .  A
C1108      H1113   1.083       .  S
C1109      C1110   1.418       .  A
C1110      C1111   1.519       .  S
C1111      F1115   1.385       .  S
C1111      F1116   1.381       .  S
C1111      F1117   1.384       .  S
C1114      F1118   1.383       .  S
C1114      F1119   1.381       .  S
C1114      F1120   1.385       .  S
C1121      C1122   1.408       .  A
C1121      C1126   1.407       .  A
C1121      H1128   1.083       .  S
C1122      C1123   1.414       .  A
C1123      C1124   1.405       .  A
C1123      C1130   1.515       .  S
C1124      C1125   1.404       .  A
C1124      H1129   1.084       .  S
C1125      C1126   1.411       .  A
C1126      C1127   1.516       .  S
C1127      F1131   1.385       .  S
C1127      F1132   1.381       .  S
C1127      F1133   1.383       .  S
C1130      F1134   1.379       .  S
C1130      F1135   1.383       .  S
C1130      F1136   1.385       .  S
C1137      C1138   1.409       .  A
C1137      C1142   1.406       .  A
C1137      H1144   1.083       .  S
C1138      C1139   1.415       .  A
C1139      C1140   1.404       .  A
C1139      C1146   1.512       .  S
C1140      C1141   1.401       .  A
C1140      H1145   1.084       .  S
C1141      C1142   1.408       .  A
C1142      C1143   1.516       .  S
C1143      F1147   1.384       .  S
C1143      F1148   1.383       .  S
C1143      F1149   1.383       .  S
C1146      F1150   1.380       .  S
C1146      F1151   1.382       .  S
C1146      F1152   1.385       .  S
C1153      C1154   1.407       .  A
C1153      C1158   1.410       .  A
C1153      H1160   1.083       .  S
C1154      C1155   1.417       .  A
C1155      C1156   1.411       .  A
C1155      C1162   1.517       .  S
C1156      C1157   1.409       .  A
C1156      H1161   1.083       .  S
C1157      C1158   1.417       .  A
C1158      C1159   1.515       .  S
C1159      F1163   1.384       .  S
C1159      F1164   1.383       .  S
C1159      F1165   1.383       .  S
C1162      F1166   1.381       .  S
C1162      F1167   1.384       .  S
C1162      F1168   1.385       .  S
C1169      C1170   1.407       .  A
C1169      C1174   1.410       .  A
C1169      H1176   1.083       .  S
C1170      C1171   1.418       .  A
C1171      C1172   1.410       .  A
C1171      C1178   1.520       .  S
C1172      C1173   1.408       .  A
C1172      H1177   1.083       .  S
C1173      C1174   1.418       .  A
C1174      C1175   1.517       .  S
C1175      F1179   1.385       .  S
C1175      F1180   1.382       .  S
C1175      F1181   1.383       .  S
C1178      F1182   1.384       .  S
C1178      F1183   1.382       .  S
C1178      F1184   1.385       .  S
C1185      C1186   1.409       .  A
C1185      C1190   1.408       .  A
C1185      H1192   1.083       .  S
C1186      C1187   1.422       .  A
C1187      C1188   1.410       .  A
C1187      C1194   1.517       .  S
C1188      C1189   1.407       .  A
C1188      H1193   1.082       .  S
C1189      C1190   1.423       .  A
C1190      C1191   1.522       .  S
C1191      F1195   1.385       .  S
C1191      F1196   1.384       .  S
C1191      F1197   1.382       .  S
C1194      F1198   1.383       .  S
C1194      F1199   1.380       .  S
C1194      F1200   1.384       .  S
C1201      C1202   1.402       .  A
C1201      C1206   1.411       .  A
C1201      H1208   1.083       .  S
C1202      C1203   1.416       .  A
C1203      C1204   1.403       .  A
C1203      C1210   1.522       .  S
C1204      C1205   1.412       .  A
C1204      H1209   1.082       .  S
C1205      C1206   1.427       .  A
C1206      C1207   1.515       .  S
C1207      F1211   1.385       .  S
C1207      F1212   1.383       .  S
C1207      F1213   1.380       .  S
C1210      F1214   1.384       .  S
C1210      F1215   1.382       .  S
C1210      F1216   1.385       .  S
C1217      C1218   1.405       .  A
C1217      C1222   1.410       .  A
C1217      H1224   1.083       .  S
C1218      C1219   1.408       .  A
C1219      C1220   1.405       .  A
C1219      C1226   1.512       .  S
C1220      C1221   1.409       .  A
C1220      H1225   1.083       .  S
C1221      C1222   1.417       .  A
C1222      C1223   1.516       .  S
C1223      F1227   1.385       .  S
C1223      F1228   1.380       .  S
C1223      F1229   1.384       .  S
C1226      F1230   1.379       .  S
C1226      F1231   1.384       .  S
C1226      F1232   1.384       .  S
C1233      C1234   1.411       .  A
C1233      C1238   1.408       .  A
C1233      H1240   1.083       .  S
C1234      C1235   1.415       .  A
C1235      C1236   1.406       .  A
C1235      C1242   1.514   1_556  S
C1236      C1237   1.403       .  A
C1236      H1241   1.084   1_556  S
C1237      C1238   1.407       .  A
C1238      C1239   1.516       .  S
C1239      F1243   1.384       .  S
C1239      F1244   1.383       .  S
C1239      F1245   1.384       .  S
C1242      F1246   1.379       .  S
C1242      F1247   1.382       .  S
C1242      F1248   1.385       .  S
C1249      C1250   1.406       .  A
C1249      C1254   1.407       .  A
C1249      H1256   1.083       .  S
C1250      C1251   1.417       .  A
C1251      C1252   1.412       .  A
C1251      C1258   1.519       .  S
C1252      C1253   1.410       .  A
C1252      H1257   1.083       .  S
C1253      C1254   1.416       .  A
C1254      C1255   1.513       .  S
C1255      F1259   1.384       .  S
C1255      F1260   1.383       .  S
C1255      F1261   1.382       .  S
C1258      F1262   1.381       .  S
C1258      F1263   1.383       .  S
C1258      F1264   1.385       .  S
C1265      C1266   1.410       .  A
C1265      C1270   1.409       .  A
C1265      H1272   1.083       .  S
C1266      C1267   1.418       .  A
C1267      C1268   1.410       .  A
C1267      C1274   1.515       .  S
C1268      C1269   1.408       .  A
C1268      H1273   1.083       .  S
C1269      C1270   1.417       .  A
C1270      C1271   1.517       .  S
C1271      F1275   1.385       .  S
C1271      F1276   1.382       .  S
C1271      F1277   1.382       .  S
C1274      F1278   1.383       .  S
C1274      F1279   1.381       .  S
C1274      F1280   1.385       .  S
C1281      C1282   1.403       .  A
C1281      C1286   1.409       .  A
C1281      H1288   1.083       .  S
C1282      C1283   1.418       .  A
C1283      C1284   1.405       .  A
C1283      C1290   1.521       .  S
C1284      C1285   1.412       .  A
C1284      H1289   1.082       .  S
C1285      C1286   1.424       .  A
C1286      C1287   1.514       .  S
C1287      F1291   1.385       .  S
C1287      F1292   1.383       .  S
C1287      F1293   1.380       .  S
C1290      F1294   1.384       .  S
C1290      F1295   1.382       .  S
C1290      F1296   1.385       .  S
C1297      C1298   1.415       .  A
C1297      C1302   1.408       .  A
C1297      H1304   1.082       .  S
C1298      C1299   1.428       .  A
C1299      C1300   1.415       .  A
C1299      C1306   1.515       .  S
C1300      C1301   1.404       .  A
C1300      H1305   1.083       .  S
C1301      C1302   1.417       .  A
C1302      C1303   1.521       .  S
C1303      F1307   1.385       .  S
C1303      F1308   1.384       .  S
C1303      F1309   1.382       .  S
C1306      F1310   1.383       .  S
C1306      F1311   1.381       .  S
C1306      F1312   1.385       .  S
C1313      C1314   1.402       .  A
C1313      C1318   1.406       .  A
C1313      H1320   1.084       .  S
C1314      C1315   1.419       .  A
C1315      C1316   1.406       .  A
C1315      C1322   1.516       .  S
C1316      C1317   1.401       .  A
C1316      H1321   1.084       .  S
C1317      C1318   1.415       .  A
C1318      C1319   1.516       .  S
C1319      F1323   1.385       .  S
C1319      F1324   1.384       .  S
C1319      F1325   1.381       .  S
C1322      F1326   1.383       .  S
C1322      F1327   1.381       .  S
C1322      F1328   1.386       .  S
C1329      C1330   1.405       .  A
C1329      C1334   1.406       .  A
C1329      H1336   1.084       .  S
C1330      C1331   1.416       .  A
C1331      C1332   1.412       .  A
C1331      C1338   1.517       .  S
C1332      C1333   1.407       .  A
C1332      H1337   1.083       .  S
C1333      C1334   1.413       .  A
C1334      C1335   1.516       .  S
C1335      F1339   1.384       .  S
C1335      F1340   1.383       .  S
C1335      F1341   1.380       .  S
C1338      F1342   1.383       .  S
C1338      F1343   1.381       .  S
C1338      F1344   1.385       .  S
C1345      C1346   1.405   1_545  A
C1345      C1350   1.409       .  A
C1345      H1352   1.083       .  S
C1346      C1347   1.414       .  A
C1347      C1348   1.412       .  A
C1347      C1354   1.519       .  S
C1348      C1349   1.410       .  A
C1348      H1353   1.083       .  S
C1349      C1350   1.417   1_565  A
C1350      C1351   1.516       .  S
C1351      F1355   1.385       .  S
C1351      F1356   1.383       .  S
C1351      F1357   1.381       .  S
C1354      F1358   1.383       .  S
C1354      F1359   1.384       .  S
C1354      F1360   1.384       .  S
C1361      C1362   1.407   1_565  A
C1361      C1366   1.412       .  A
C1361      H1368   1.083       .  S
C1362      C1363   1.417       .  A
C1363      C1364   1.411       .  A
C1363      C1370   1.515       .  S
C1364      C1365   1.406   1_545  A
C1364      H1369   1.083       .  S
C1365      C1366   1.417       .  A
C1366      C1367   1.518       .  S
C1367      F1371   1.384       .  S
C1367      F1372   1.384       .  S
C1367      F1373   1.382       .  S
C1370      F1374   1.381       .  S
C1370      F1375   1.383       .  S
C1370      F1376   1.384       .  S
C1377      C1378   1.405       .  A
C1377      C1382   1.410       .  A
C1377      H1384   1.083       .  S
C1378      C1379   1.422       .  A
C1379      C1380   1.409       .  A
C1379      C1386   1.518   1_556  S
C1380      C1381   1.399       .  A
C1380      H1385   1.083   1_556  S
C1381      C1382   1.417       .  A
C1382      C1383   1.518       .  S
C1383      F1387   1.384       .  S
C1383      F1388   1.384       .  S
C1383      F1389   1.381       .  S
C1386      F1390   1.384       .  S
C1386      F1391   1.381       .  S
C1386      F1392   1.385       .  S
C1393      C1394   1.405       .  A
C1393      C1398   1.407       .  A
C1393      H1400   1.084   1_554  S
C1394      C1395   1.412       .  A
C1395      C1396   1.404       .  A
C1395      C1402   1.514       .  S
C1396      C1397   1.404       .  A
C1396      H1401   1.084       .  S
C1397      C1398   1.414       .  A
C1398      C1399   1.516   1_554  S
C1399      F1403   1.385       .  S
C1399      F1404   1.383       .  S
C1399      F1405   1.380       .  S
C1402      F1406   1.383       .  S
C1402      F1407   1.379       .  S
C1402      F1408   1.385       .  S
C1409      C1410   1.396       .  A
C1409      C1414   1.406       .  A
C1409      H1416   1.084       .  S
C1410      C1411   1.413       .  A
C1411      C1412   1.408       .  A
C1411      C1418   1.517       .  S
C1412      C1413   1.406       .  A
C1412      H1417   1.083       .  S
C1413      C1414   1.424       .  A
C1414      C1415   1.517       .  S
C1415      F1419   1.386       .  S
C1415      F1420   1.383       .  S
C1415      F1421   1.380       .  S
C1418      F1422   1.383       .  S
C1418      F1423   1.382       .  S
C1418      F1424   1.385       .  S
C1425      C1426   1.409       .  A
C1425      C1430   1.402       .  A
C1425      H1432   1.082       .  S
C1426      C1427   1.427       .  A
C1427      C1428   1.412       .  A
C1427      C1434   1.514       .  S
C1428      C1429   1.402       .  A
C1428      H1433   1.083       .  S
C1429      C1430   1.418       .  A
C1430      C1431   1.521       .  S
C1431      F1435   1.385       .  S
C1431      F1436   1.382       .  S
C1431      F1437   1.383       .  S
C1434      F1438   1.381       .  S
C1434      F1439   1.383       .  S
C1434      F1440   1.385       .  S
C1441      C1442   1.408       .  A
C1441      C1446   1.407       .  A
C1441      H1448   1.084       .  S
C1442      C1443   1.415       .  A
C1443      C1444   1.407       .  A
C1443      C1450   1.517   1_556  S
C1444      C1445   1.405       .  A
C1444      H1449   1.084   1_556  S
C1445      C1446   1.409       .  A
C1446      C1447   1.516       .  S
C1447      F1451   1.385       .  S
C1447      F1452   1.383       .  S
C1447      F1453   1.383       .  S
C1450      F1454   1.380       .  S
C1450      F1455   1.383       .  S
C1450      F1456   1.385       .  S
C1457      C1458   1.412       .  A
C1457      C1462   1.413       .  A
C1457      H1464   1.083       .  S
C1458      C1459   1.419       .  A
C1459      C1460   1.410       .  A
C1459      C1466   1.518       .  S
C1460      C1461   1.411       .  A
C1460      H1465   1.083       .  S
C1461      C1462   1.419       .  A
C1462      C1463   1.519       .  S
C1463      F1467   1.384       .  S
C1463      F1468   1.384       .  S
C1463      F1469   1.382       .  S
C1466      F1470   1.382       .  S
C1466      F1471   1.382       .  S
C1466      F1472   1.384       .  S
C1473      C1474   1.406       .  A
C1473      C1478   1.406       .  A
C1473      H1480   1.083       .  S
C1474      C1475   1.415       .  A
C1475      C1476   1.411       .  A
C1475      C1482   1.518       .  S
C1476      C1477   1.410       .  A
C1476      H1481   1.083       .  S
C1477      C1478   1.416       .  A
C1478      C1479   1.516       .  S
C1479      F1483   1.384       .  S
C1479      F1484   1.383       .  S
C1479      F1485   1.381       .  S
C1482      F1486   1.382       .  S
C1482      F1487   1.383       .  S
C1482      F1488   1.385       .  S
C1489      C1490   1.405       .  A
C1489      C1494   1.407       .  A
C1489      H1496   1.083       .  S
C1490      C1491   1.418       .  A
C1491      C1492   1.410       .  A
C1491      C1498   1.518       .  S
C1492      C1493   1.404       .  A
C1492      H1497   1.083       .  S
C1493      C1494   1.414       .  A
C1494      C1495   1.518       .  S
C1495      F1499   1.384       .  S
C1495      F1500   1.384       .  S
C1495      F1501   1.382       .  S
C1498      F1502   1.384       .  S
C1498      F1503   1.381       .  S
C1498      F1504   1.384       .  S
C1505      C1506   1.405       .  A
C1505      C1510   1.407       .  A
C1505      H1512   1.083       .  S
C1506      C1507   1.414       .  A
C1507      C1508   1.405       .  A
C1507      C1514   1.516       .  S
C1508      C1509   1.404       .  A
C1508      H1513   1.084       .  S
C1509      C1510   1.415       .  A
C1510      C1511   1.519       .  S
C1511      F1515   1.384       .  S
C1511      F1516   1.384       .  S
C1511      F1517   1.381       .  S
C1514      F1518   1.384       .  S
C1514      F1519   1.381       .  S
C1514      F1520   1.385       .  S
C1521      C1522   1.403       .  A
C1521      C1526   1.412       .  A
C1521      H1528   1.083       .  S
C1522      C1523   1.419       .  A
C1523      C1524   1.408       .  A
C1523      C1530   1.522       .  S
C1524      C1525   1.413       .  A
C1524      H1529   1.082       .  S
C1525      C1526   1.427       .  A
C1526      C1527   1.515       .  S
C1527      F1531   1.385       .  S
C1527      F1532   1.383       .  S
C1527      F1533   1.381       .  S
C1530      F1534   1.384       .  S
C1530      F1535   1.382       .  S
C1530      F1536   1.385       .  S
C1537      C1538   1.405       .  A
C1537      C1542   1.407       .  A
C1537      H1544   1.084       .  S
C1538      C1539   1.415       .  A
C1539      C1540   1.406       .  A
C1539      C1546   1.516       .  S
C1540      C1541   1.404       .  A
C1540      H1545   1.084       .  S
C1541      C1542   1.413       .  A
C1542      C1543   1.515       .  S
C1543      F1547   1.384       .  S
C1543      F1548   1.383       .  S
C1543      F1549   1.381       .  S
C1546      F1550   1.383       .  S
C1546      F1551   1.378       .  S
C1546      F1552   1.384       .  S
C1553      C1554   1.400       .  A
C1553      C1558   1.408       .  A
C1553      H1560   1.083       .  S
C1554      C1555   1.418       .  A
C1555      C1556   1.408       .  A
C1555      C1562   1.518       .  S
C1556      C1557   1.402       .  A
C1556      H1561   1.083       .  S
C1557      C1558   1.419       .  A
C1558      C1559   1.517       .  S
C1559      F1563   1.385       .  S
C1559      F1564   1.383       .  S
C1559      F1565   1.381       .  S
C1562      F1566   1.384       .  S
C1562      F1567   1.381       .  S
C1562      F1568   1.384       .  S
C1569      C1570   1.409       .  A
C1569      C1574   1.407       .  A
C1569      H1576   1.084       .  S
C1570      C1571   1.414       .  A
C1571      C1572   1.408       .  A
C1571      C1578   1.514       .  S
C1572      C1573   1.406       .  A
C1572      H1577   1.084       .  S
C1573      C1574   1.409       .  A
C1574      C1575   1.513       .  S
C1575      F1579   1.384       .  S
C1575      F1580   1.381       .  S
C1575      F1581   1.383       .  S
C1578      F1582   1.380       .  S
C1578      F1583   1.383       .  S
C1578      F1584   1.385       .  S
C1585      C1586   1.409       .  A
C1585      C1590   1.410       .  A
C1585      H1592   1.083       .  S
C1586      C1587   1.417       .  A
C1587      C1588   1.409       .  A
C1587      C1594   1.519       .  S
C1588      C1589   1.408       .  A
C1588      H1593   1.083       .  S
C1589      C1590   1.416       .  A
C1590      C1591   1.519       .  S
C1591      F1595   1.385       .  S
C1591      F1596   1.384       .  S
C1591      F1597   1.381       .  S
C1594      F1598   1.382       .  S
C1594      F1599   1.383       .  S
C1594      F1600   1.385       .  S
C1601      C1602   1.409       .  A
C1601      C1606   1.412       .  A
C1601      H1608   1.083       .  S
C1602      C1603   1.419       .  A
C1603      C1604   1.411       .  A
C1603      C1610   1.515       .  S
C1604      C1605   1.406       .  A
C1604      H1609   1.083       .  S
C1605      C1606   1.415       .  A
C1606      C1607   1.515       .  S
C1607      F1611   1.384       .  S
C1607      F1612   1.381       .  S
C1607      F1613   1.384       .  S
C1610      F1614   1.383       .  S
C1610      F1615   1.381       .  S
C1610      F1616   1.385       .  S
C1617      C1618   1.408       .  A
C1617      C1622   1.413       .  A
C1617      H1624   1.083       .  S
C1618      C1619   1.415       .  A
C1619      C1620   1.407       .  A
C1619      C1626   1.515       .  S
C1620      C1621   1.403       .  A
C1620      H1625   1.084       .  S
C1621      C1622   1.415       .  A
C1622      C1623   1.518       .  S
C1623      F1627   1.384       .  S
C1623      F1628   1.384       .  S
C1623      F1629   1.381       .  S
C1626      F1630   1.383       .  S
C1626      F1631   1.380       .  S
C1626      F1632   1.385       .  S
C1633      C1634   1.397       .  A
C1633      C1638   1.402       .  A
C1633      H1640   1.084       .  S
C1634      C1635   1.411       .  A
C1635      C1636   1.402       .  A
C1635      C1642   1.517   1_554  S
C1636      C1637   1.403       .  A
C1636      H1641   1.084       .  S
C1637      C1638   1.420       .  A
C1638      C1639   1.518       .  S
C1639      F1643   1.385       .  S
C1639      F1644   1.384       .  S
C1639      F1645   1.381       .  S
C1642      F1646   1.383       .  S
C1642      F1647   1.382       .  S
C1642      F1648   1.385       .  S
C1649      C1650   1.406       .  A
C1649      C1654   1.404       .  A
C1649      H1656   1.083       .  S
C1650      C1651   1.424       .  A
C1651      C1652   1.415       .  A
C1651      C1658   1.516       .  S
C1652      C1653   1.407       .  A
C1652      H1657   1.083       .  S
C1653      C1654   1.423       .  A
C1654      C1655   1.522       .  S
C1655      F1659   1.385       .  S
C1655      F1660   1.384       .  S
C1655      F1661   1.382       .  S
C1658      F1662   1.384       .  S
C1658      F1663   1.380       .  S
C1658      F1664   1.385       .  S
C1665      C1666   1.398       .  A
C1665      C1670   1.404       .  A
C1665      H1672   1.084       .  S
C1666      C1667   1.414       .  A
C1667      C1668   1.403       .  A
C1667      C1674   1.517       .  S
C1668      C1669   1.402       .  A
C1668      H1673   1.084       .  S
C1669      C1670   1.420       .  A
C1670      C1671   1.517       .  S
C1671      F1675   1.385       .  S
C1671      F1676   1.382       .  S
C1671      F1677   1.381       .  S
C1674      F1678   1.383       .  S
C1674      F1679   1.381       .  S
C1674      F1680   1.385       .  S
C1681      C1682   1.407       .  A
C1681      C1686   1.406       .  A
C1681      H1688   1.083       .  S
C1682      C1683   1.426       .  A
C1683      C1684   1.407       .  A
C1683      C1690   1.518       .  S
C1684      C1685   1.396       .  A
C1684      H1689   1.083       .  S
C1685      C1686   1.413       .  A
C1686      C1687   1.516       .  S
C1687      F1691   1.385       .  S
C1687      F1692   1.382       .  S
C1687      F1693   1.383       .  S
C1690      F1694   1.383       .  S
C1690      F1695   1.382       .  S
C1690      F1696   1.385       .  S
C1697      C1698   1.407       .  A
C1697      C1702   1.401       .  A
C1697      H1704   1.083       .  S
C1698      C1699   1.424       .  A
C1699      C1700   1.413       .  A
C1699      C1706   1.517       .  S
C1700      C1701   1.407       .  A
C1700      H1705   1.083       .  S
C1701      C1702   1.419       .  A
C1702      C1703   1.521       .  S
C1703      F1707   1.385       .  S
C1703      F1708   1.384       .  S
C1703      F1709   1.383       .  S
C1706      F1710   1.384       .  S
C1706      F1711   1.380       .  S
C1706      F1712   1.385       .  S
C1713      C1714   1.412       .  A
C1713      C1718   1.408       .  A
C1713      H1720   1.082       .  S
C1714      C1715   1.428       .  A
C1715      C1716   1.411       .  A
C1715      C1722   1.516       .  S
C1716      C1717   1.403       .  A
C1716      H1721   1.083       .  S
C1717      C1718   1.417       .  A
C1718      C1719   1.520       .  S
C1719      F1723   1.385       .  S
C1719      F1724   1.384       .  S
C1719      F1725   1.382       .  S
C1722      F1726   1.384       .  S
C1722      F1727   1.379       .  S
C1722      F1728   1.385       .  S
C1729      C1730   1.409   1_465  A
C1729      C1734   1.409       .  A
C1729      H1736   1.083       .  S
C1730      C1731   1.417       .  A
C1731      C1732   1.411       .  A
C1731      C1738   1.519       .  S
C1732      C1733   1.411       .  A
C1732      H1737   1.083       .  S
C1733      C1734   1.418   1_645  A
C1734      C1735   1.517       .  S
C1735      F1739   1.385       .  S
C1735      F1740   1.382       .  S
C1735      F1741   1.382       .  S
C1738      F1742   1.382       .  S
C1738      F1743   1.384       .  S
C1738      F1744   1.385       .  S
C1745      C1746   1.410   1_465  A
C1745      C1750   1.409   1_554  A
C1745      H1752   1.083       .  S
C1746      C1747   1.418       .  A
C1747      C1748   1.411   1_554  A
C1747      C1754   1.519       .  S
C1748      C1749   1.410   1_545  A
C1748      H1753   1.083       .  S
C1749      C1750   1.416   1_655  A
C1750      C1751   1.519       .  S
C1751      F1755   1.385   1_556  S
C1751      F1756   1.383       .  S
C1751      F1757   1.382       .  S
C1754      F1758   1.382       .  S
C1754      F1759   1.384       .  S
C1754      F1760   1.385       .  S
C1761      C1762   1.402       .  A
C1761      C1766   1.406       .  A
C1761      H1768   1.083       .  S
C1762      C1763   1.418       .  A
C1763      C1764   1.407       .  A
C1763      C1770   1.518       .  S
C1764      C1765   1.401       .  A
C1764      H1769   1.084       .  S
C1765      C1766   1.417       .  A
C1766      C1767   1.518       .  S
C1767      F1771   1.385       .  S
C1767      F1772   1.383       .  S
C1767      F1773   1.380       .  S
C1770      F1774   1.384       .  S
C1770      F1775   1.381       .  S
C1770      F1776   1.384       .  S
C1777      C1778   1.407       .  A
C1777      C1782   1.410       .  A
C1777      H1784   1.083       .  S
C1778      C1779   1.417       .  A
C1779      C1780   1.405       .  A
C1779      C1786   1.514       .  S
C1780      C1781   1.402       .  A
C1780      H1785   1.084       .  S
C1781      C1782   1.415       .  A
C1782      C1783   1.519       .  S
C1783      F1787   1.384       .  S
C1783      F1788   1.383       .  S
C1783      F1789   1.382       .  S
C1786      F1790   1.382       .  S
C1786      F1791   1.380       .  S
C1786      F1792   1.385       .  S
C1793      C1794   1.406       .  A
C1793      C1798   1.407       .  A
C1793      H1800   1.084       .  S
C1794      C1795   1.411       .  A
C1795      C1796   1.406       .  A
C1795      C1802   1.515       .  S
C1796      C1797   1.408       .  A
C1796      H1801   1.084       .  S
C1797      C1798   1.413       .  A
C1798      C1799   1.514       .  S
C1799      F1803   1.385       .  S
C1799      F1804   1.380       .  S
C1799      F1805   1.382       .  S
C1802      F1806   1.381       .  S
C1802      F1807   1.383       .  S
C1802      F1808   1.384       .  S
C1809      C1810   1.394       .  A
C1809      C1814   1.406       .  A
C1809      H1816   1.083       .  S
C1810      C1811   1.415       .  A
C1811      C1812   1.405       .  A
C1811      C1818   1.516       .  S
C1812      C1813   1.403       .  A
C1812      H1817   1.083       .  S
C1813      C1814   1.431       .  A
C1814      C1815   1.521       .  S
C1815      F1819   1.385       .  S
C1815      F1820   1.383       .  S
C1815      F1821   1.383       .  S
C1818      F1822   1.381       .  S
C1818      F1823   1.382       .  S
C1818      F1824   1.385       .  S
