geometry optimzed in LAMMPS
_audit_creation_date              2020-11-30 
_audit_creation_method            'lammps2cif' 
_symmetry_space_group_name_H-M    'P1' 
_symmetry_Int_Tables_number       1 
_symmetry_cell_setting            triclinic 
loop_ 
_symmetry_equiv_pos_as_xyz 
  x,y,z 
_cell_length_a                    31.41179049 
_cell_length_b                    31.456568226262142 
_cell_length_c                    54.77115031401234 
_cell_angle_alpha                 89.95329429893326 
_cell_angle_beta                  90.11629614401922 
_cell_angle_gamma                 89.79193281092185 
loop_ 
_atom_site_label 
_atom_site_type_symbol 
_atom_site_fract_x 
_atom_site_fract_y 
_atom_site_fract_z 
_atom_site_charge 
O1          O  0.46978633  0.43821114  0.88641429    -0.86300
O2          O  0.05416514  0.41356115  0.88254940    -0.83400
C3          C  0.07434423  0.43630830  0.89758850     0.97100
O4          O  0.06907240  0.43113441  0.92017059    -0.83400
O5          O  0.02843716  0.41181858  0.96301664    -0.86000
C6          C  0.49644018  0.43600509  0.96535952     1.01700
O7          O  0.46422484  0.43197503  0.95190893    -0.78800
O8          O  0.41878396  0.41616521  0.91054621    -0.79000
C9          C  0.43311364  0.44297838  0.89545930     1.01600
O10         O  0.44409612  0.35137174  0.88158449    -0.86300
O11         O  0.02821394  0.32644184  0.88320213    -0.83400
C12         C  0.06368371  0.31807118  0.89300719     0.97200
O13         O  0.07849591  0.34129822  0.90986175    -0.83400
O14         O  0.03369776  0.32352467  0.95116471    -0.80400
C15         C  0.50208691  0.31930676  0.96498157     1.01600
O16         O  0.46999301  0.34331382  0.96259490    -0.78800
O17         O  0.43145823  0.32647775  0.91811724    -0.79000
C18         C  0.42468391  0.32582313  0.89540835     1.01600
Cr19       Cr  0.49913941  0.38220612  0.88608800     1.93700
Cr20       Cr  0.04842356  0.37722620  0.93466809     1.93200
Cr21       Cr  0.45020276  0.37929530  0.93447876     1.39100
O22         O  0.49938210  0.37949313  0.91848398    -1.24100
O23         O  0.30514079  0.10289106  0.86867251    -0.86300
O24         O  0.27858936  0.18668377  0.87030879    -0.83400
C25         C  0.30336359  0.20544071  0.85575514     0.97100
O26         O  0.29904067  0.20079849  0.83299383    -0.83400
O27         O  0.28233576  0.15985724  0.78956517    -0.86000
C28         C  0.30951863  0.13025162  0.78864209     1.01700
O29         O  0.30604045  0.09840243  0.80249113    -0.78800
O30         O  0.28806395  0.05176607  0.84334700    -0.79000
C31         C  0.31239503  0.06673451  0.85956318     1.01600
O32         O  0.21865424  0.07572303  0.87063099    -0.86300
O33         O  0.19163898  0.15918373  0.86740388    -0.83400
C34         C  0.18421157  0.19475939  0.85751869     0.97200
O35         O  0.20908614  0.20934739  0.84149067    -0.83400
O36         O  0.19319015  0.16143933  0.80065270    -0.86000
C37         C  0.19091055  0.12898169  0.78719607     1.01600
O38         O  0.21821295  0.09974984  0.78935306    -0.78800
O39         O  0.19846338  0.06067378  0.83334489    -0.79000
C40         C  0.19426735  0.05621554  0.85614694     1.01600
Cr41       Cr  0.24851561  0.13117167  0.86661950     1.93700
Cr42       Cr  0.24616707  0.17900594  0.81754592     1.93200
Cr43       Cr  0.25229234  0.08157267  0.81841211     1.39100
O44         O  0.24901255  0.13061723  0.83419585    -1.24100
O45         O  0.29869623  0.40611831  0.62163111    -0.86300
O46         O  0.21360791  0.42580711  0.61869374    -0.83400
C47         C  0.17686970  0.42911868  0.60954572     0.97100
O48         O  0.16512711  0.40470387  0.59257555    -0.83400
O49         O  0.21241903  0.42887368  0.55247026    -0.86000
C50         C  0.24437280  0.43294443  0.53872628     1.01700
O51         O  0.27558373  0.40782558  0.54048506    -0.78800
O52         O  0.31219993  0.42931907  0.58474004    -0.79000
C53         C  0.31632304  0.43262927  0.60760435     1.01600
O54         O  0.27889233  0.31746319  0.61783044    -0.86300
O55         O  0.19348258  0.33698954  0.61957824    -0.83400
C56         C  0.17699895  0.31173352  0.60440280     0.97200
O57         O  0.18204559  0.31744344  0.58176711    -0.83400
O58         O  0.22202330  0.34107625  0.53940456    -0.86000
C59         C  0.25303419  0.31546133  0.53856680     1.01600
O60         O  0.28453067  0.32028476  0.55257344    -0.78800
O61         O  0.32888416  0.34152742  0.59383180    -0.79000
C62         C  0.31626963  0.31519910  0.60957951     1.01600
Cr63       Cr  0.24622766  0.37170816  0.61693482     1.93700
Cr64       Cr  0.19907263  0.37313602  0.56784316     1.93200
Cr65       Cr  0.29646607  0.37470962  0.56910411     1.39100
O66         O  0.24720732  0.37324127  0.58465029    -1.24100
O67         O  0.02868832  0.17379255  0.62967519    -0.86300
O68         O  0.05085238  0.08947480  0.63343112    -0.83400
C69         C  0.05530848  0.05330158  0.64309587     0.97100
O70         O  0.03055169  0.04120394  0.65980808    -0.83400
O71         O  0.05496467  0.09005944  0.69913154    -0.86000
C72         C  0.05974148  0.12279042  0.71220239     1.01700
O73         O  0.03276388  0.15251897  0.71100177    -0.78800
O74         O  0.05204955  0.18888906  0.66630355    -0.79000
C75         C  0.05425864  0.19334008  0.64339925     1.01600
O76         O  0.44044546  0.15185094  0.63401215    -0.86300
O77         O  0.46256358  0.06701136  0.63294084    -0.83400
C78         C  0.43834406  0.04979180  0.64838706     0.97200
O79         O  0.44340611  0.05649848  0.67093391    -0.83400
O80         O  0.46719223  0.09823349  0.71322875    -0.86000
C81         C  0.44050077  0.12830939  0.71400004     1.01600
O82         O  0.44398096  0.15927715  0.69947326    -0.78800
O83         O  0.46404584  0.20287141  0.65760514    -0.79000
C84         C  0.43737785  0.18916592  0.64230205     1.01600
Cr85       Cr  0.99576843  0.12066594  0.63500563     1.93700
Cr86       Cr  0.99894300  0.07511050  0.68451319     1.93200
Cr87       Cr  0.99820504  0.17207889  0.68248224     1.39100
O88         O  0.99762392  0.12259640  0.66728556    -1.24100
O89         O  0.28261556  0.06693224  0.38685318    -0.86300
O90         O  0.19731284  0.08648773  0.38647519    -0.83400
C91         C  0.18116049  0.06106353  0.40181615     0.97100
O92         O  0.18810154  0.06627795  0.42426591    -0.83400
O93         O  0.22821620  0.09227015  0.46643001    -0.86000
C94         C  0.25934460  0.06687818  0.46776228     1.01700
O95         O  0.28997272  0.06968595  0.45294049    -0.78800
O96         O  0.33377329  0.09034225  0.41059520    -0.79000
C97         C  0.32021081  0.06439049  0.39477036     1.01600
O98         O  0.30331144  0.15566250  0.38324206    -0.86300
O99         O  0.21831234  0.17524826  0.38680744    -0.83400
C100        C  0.18180036  0.17912768  0.39600066     0.97200
O101        O  0.16977831  0.15332261  0.41228615    -0.83400
O102        O  0.21755771  0.17852348  0.45152015    -0.86000
C103        C  0.24960935  0.18403283  0.46497748     1.01600
O104        O  0.28073220  0.15844826  0.46398291    -0.78800
O105        O  0.31618761  0.17873013  0.42005690    -0.79000
C106        C  0.31998442  0.18283858  0.39726258     1.01600
Cr107      Cr  0.25048211  0.12112989  0.38823518     1.93700
Cr108      Cr  0.20448554  0.12251510  0.43734602     1.93200
Cr109      Cr  0.30166897  0.12403048  0.43574423     1.39100
O110        O  0.25227507  0.12232725  0.42043519    -1.24100
O111        O  0.46801542  0.42711530  0.37290640    -0.86300
O112        O  0.44531814  0.34330193  0.37032275    -0.83400
C113        C  0.44113616  0.30625764  0.36202739     0.97100
O114        O  0.46645979  0.29226499  0.34597399    -0.83400
O115        O  0.44632550  0.33882418  0.30520666    -0.86000
C116        C  0.44279208  0.37038493  0.29113017     1.01700
O117        O  0.46980239  0.40015076  0.29215882    -0.78800
O118        O  0.45031431  0.44158490  0.33495925    -0.79000
C119        C  0.44489735  0.44657386  0.35756003     1.01600
O120        O  0.05632857  0.40185803  0.37200559    -0.86300
O121        O  0.03302508  0.31769659  0.37337217    -0.83400
C122        C  0.05803925  0.29914659  0.35870783     0.97200
O123        O  0.05518124  0.30525504  0.33601995    -0.83400
O124        O  0.03477136  0.34379286  0.29218739    -0.86000
C125        C  0.06220762  0.37301665  0.29122366     1.01600
O126        O  0.05881878  0.40435238  0.30539838    -0.78800
O127        O  0.03880322  0.45163472  0.34580095    -0.79000
C128        C  0.06272656  0.43789441  0.36266948     1.01600
Cr129      Cr  0.00079109  0.37252742  0.36962667     1.93700
Cr130      Cr  0.00081413  0.32378489  0.32109143     1.93200
Cr131      Cr  0.00426672  0.42073531  0.32080942     1.39100
O132        O  0.00186079  0.37246852  0.33724743    -1.24100
O133        O  0.44748637  0.09470504  0.12030163    -0.86300
O134        O  0.03194001  0.07072034  0.11849114    -0.83400
C135        C  0.06777934  0.06357162  0.10891619     0.97100
O136        O  0.08183426  0.08711671  0.09197122    -0.83400
O137        O  0.03567012  0.07184485  0.05086658    -0.86000
C138        C  0.50381556  0.06905385  0.03706108     1.01700
O139        O  0.47286548  0.09434170  0.03924582    -0.78800
O140        O  0.43591184  0.07244396  0.08313952    -0.79000
C141        C  0.42947820  0.06903576  0.10578550     1.01600
O142        O  0.47313913  0.18278360  0.11749366    -0.86300
O143        O  0.05794069  0.15704593  0.12052719    -0.83400
C144        C  0.07840416  0.18028883  0.10590600     0.97200
O145        O  0.07240097  0.17748404  0.08323177    -0.83400
O146        O  0.03087849  0.16125190  0.04002442    -0.86000
C147        C  0.49908720  0.18604391  0.03827676     1.01600
O148        O  0.46747935  0.18175599  0.05223942    -0.78800
O149        O  0.42209426  0.16076968  0.09336710    -0.79000
C150        C  0.43564720  0.18625335  0.10936936     1.01600
Cr151      Cr  0.50260299  0.12647924  0.11659060     1.93700
Cr152      Cr  0.05134961  0.12463575  0.06783250     1.93200
Cr153      Cr  0.45353678  0.12722115  0.06828429     1.39100
O154        O  0.50270788  0.12614316  0.08419353    -1.24100
O155        O  0.21802333  0.32241039  0.13299935    -0.86300
O156        O  0.19640312  0.40698817  0.13668286    -0.83400
C157        C  0.19062069  0.44275787  0.14659529     0.97100
O158        O  0.21599968  0.45579751  0.16293878    -0.83400
O159        O  0.19933268  0.40892616  0.20416765    -0.86000
C160        C  0.19492598  0.37641685  0.21737975     1.01700
O161        O  0.21846200  0.34421443  0.21435773    -0.78800
O162        O  0.19750756  0.30726945  0.17025356    -0.79000
C163        C  0.19355124  0.30301087  0.14746387     1.01600
O164        O  0.30663387  0.34484521  0.13545058    -0.86300
O165        O  0.28433955  0.42979349  0.13386346    -0.83400
C166        C  0.31026479  0.44749311  0.14825725     0.97200
O167        O  0.30626527  0.44206152  0.17094325    -0.83400
O168        O  0.28839393  0.40098825  0.21417027    -0.86000
C169        C  0.31215108  0.36854351  0.21585175     1.01600
O170        O  0.30670298  0.33732757  0.20182308    -0.78800
O171        O  0.28566706  0.29423691  0.16007779    -0.79000
C172        C  0.31127753  0.30794076  0.14415938     1.01600
Cr173      Cr  0.25140269  0.37592038  0.13743414     1.93700
Cr174      Cr  0.25249856  0.42301705  0.18662546     1.93200
Cr175      Cr  0.25201774  0.32498269  0.18536270     1.39100
O176        O  0.25178994  0.37467489  0.16987560    -1.24100
C177        C  0.10971221  0.21066345  0.11575730    -0.07100
C178        C  0.10943721  0.25256824  0.10702760    -0.18200
C179        C  0.13511263  0.28370723  0.11774878     0.10100
C180        C  0.16236520  0.27276653  0.13735495    -0.07000
C181        C  0.16318633  0.23068545  0.14578900    -0.18300
C182        C  0.13780938  0.19945277  0.13495235     0.10100
S183        S  0.12999798  0.33734725  0.10659953    -0.33200
S184        S  0.14463092  0.14545056  0.14541320    -0.33200
H185        H  0.13941613  0.12702348  0.12222054     0.28100
H186        H  0.13189975  0.35568433  0.12998415     0.28100
H187        H  0.08783675  0.26150339  0.09242568     0.18700
H188        H  0.18508146  0.22169981  0.16023870     0.18700
C189        C  0.34490715  0.27853887  0.13522778    -0.07100
C190        C  0.33567648  0.23485880  0.13562117    -0.18200
C191        C  0.36534097  0.20450655  0.12796794     0.10100
C192        C  0.40552540  0.21774041  0.11948328    -0.07000
C193        C  0.41535755  0.26126442  0.11924254    -0.18300
C194        C  0.38558272  0.29179584  0.12714653     0.10100
S195        S  0.35200318  0.14865579  0.12997637    -0.33200
S196        S  0.40189513  0.34666994  0.12719093    -0.33200
H197        H  0.38333467  0.35619292  0.14991371     0.28100
H198        H  0.30970919  0.15383924  0.13783910     0.28100
H199        H  0.30482282  0.22436203  0.14191643     0.18700
H200        H  0.44618656  0.27150730  0.11270192     0.18700
C201        C  0.40012728  0.03603226  0.11587937    -0.07100
C202        C  0.40152178  0.52752903  0.14113483    -0.18200
C203        C  0.37461219  0.49759093  0.15211738     0.10100
C204        C  0.34374967  0.47610235  0.13785154    -0.07000
C205        C  0.34345385  0.98352895  0.11247177    -0.18300
C206        C  0.37078103  0.01290485  0.10143132     0.10100
S207        S  0.38244741  0.48800138  0.18425439    -0.33200
S208        S  0.36490975  0.02006836  0.06895215    -0.33200
H209        H  0.35895462  0.06431895  0.07080295     0.28100
H210        H  0.38409684  0.44350793  0.18157545     0.28100
H211        H  0.42434492  0.54391990  0.15255801     0.18700
H212        H  0.32078518  0.96714823  0.10094416     0.18700
C213        C  0.09508920  0.02905417  0.11863108    -0.07100
C214        C  0.10440829  0.02857502  0.14366729    -0.18200
C215        C  0.13390634  0.99968502  0.15346992     0.10100
C216        C  0.15546661  0.47080349  0.13790226    -0.07000
C217        C  0.14451856  0.47008020  0.11301021    -0.18300
C218        C  0.11448073  0.49852891  0.10331533     0.10100
S219        S  0.14148832  0.00040062  0.18603825    -0.33200
S220        S  0.10144715  0.49378586  0.07140903    -0.33200
H221        H  0.05773685  0.00237018  0.07482694     0.28100
H222        H  0.13904933  0.45583409  0.18801156     0.28100
H223        H  0.08918300  0.05143197  0.15562767     0.18700
H224        H  0.16001428  0.44769316  0.10087631     0.18700
C225        C  0.16227604  0.37564607  0.23683675    -0.07100
C226        C  0.13881691  0.33829893  0.24044880    -0.18200
C227        C  0.10708256  0.33575475  0.25834366     0.10100
C228        C  0.09722879  0.37198109  0.27277722    -0.07000
C229        C  0.12137278  0.40911538  0.26920489    -0.18300
C230        C  0.15413523  0.41100341  0.25197946     0.10100
S231        S  0.08136910  0.28501497  0.26184222    -0.33200
S232        S  0.18571410  0.45873457  0.25113696    -0.33200
H233        H  0.22461849  0.43755852  0.24715280     0.28100
H234        H  0.08771549  0.28375123  0.28727947     0.28100
H235        H  0.14533944  0.31066189  0.22920753     0.18700
H236        H  0.11497555  0.43718983  0.28000399     0.18700
C237        C  0.34610495  0.36779780  0.23478204    -0.07100
C238        C  0.36350919  0.40672270  0.24234205    -0.18200
C239        C  0.39389487  0.40884682  0.26100977     0.10100
C240        C  0.40844000  0.37100539  0.27238335    -0.07000
C241        C  0.39046628  0.33212458  0.26510077    -0.18300
C242        C  0.35986113  0.33007185  0.24652608     0.10100
S243        S  0.41083104  0.46113258  0.27014878    -0.33200
S244        S  0.33810045  0.27859731  0.23965136    -0.33200
H245        H  0.35596170  0.27787405  0.21610701     0.28100
H246        H  0.40533301  0.45281548  0.29516106     0.28100
H247        H  0.35288094  0.43603302  0.23386670     0.18700
H248        H  0.40073433  0.30277846  0.27369378     0.18700
C249        C  0.15142372  0.21193402  0.38696899    -0.07100
C250        C  0.10795727  0.20664895  0.39240023    -0.18200
C251        C  0.07703138  0.23477026  0.38345379     0.10100
C252        C  0.08948766  0.26870003  0.36831454    -0.07000
C253        C  0.13261201  0.27434127  0.36280606    -0.18300
C254        C  0.16379160  0.24724730  0.37253917     0.10100
S255        S  0.02148637  0.22566323  0.39032644    -0.33200
S256        S  0.21848784  0.26120562  0.36690708    -0.33200
H257        H  0.23157493  0.25411772  0.39117929     0.28100
H258        H  0.02766023  0.19171592  0.40669973     0.28100
H259        H  0.09791960  0.17985580  0.40335222     0.18700
H260        H  0.14218863  0.30106599  0.35160640     0.18700
C261        C  0.40736736  0.27808500  0.37128444    -0.07100
C262        C  0.38599882  0.25217480  0.35449716    -0.18200
C263        C  0.35512354  0.22311030  0.36201151     0.10100
C264        C  0.34651189  0.21799615  0.38728891    -0.07000
C265        C  0.36647991  0.24571571  0.40390909    -0.18300
C266        C  0.39672330  0.27537557  0.39626760     0.10100
S267        S  0.32829174  0.19421751  0.33814570    -0.33200
S268        S  0.42251652  0.30654145  0.41957892    -0.33200
H269        H  0.46365323  0.30196308  0.40982021     0.28100
H270        H  0.28742595  0.20241371  0.34751416     0.28100
H271        H  0.39315995  0.25492292  0.33519590     0.18700
H272        H  0.35991663  0.24322587  0.42327023     0.18700
C273        C  0.34982279  0.03283285  0.38452932    -0.07100
C274        C  0.38291319  0.04786441  0.36974025    -0.18200
C275        C  0.41393626  0.02029820  0.36049216     0.10100
C276        C  0.41230320  0.47667827  0.36630985    -0.07000
C277        C  0.37875039  0.46141280  0.38071461    -0.18300
C278        C  0.34715125  0.48889468  0.38966383     0.10100
S279        S  0.45548633  0.04290808  0.34197634    -0.33200
S280        S  0.30489353  0.46542211  0.40745661    -0.33200
H281        H  0.28716977  0.00269581  0.41727282     0.28100
H282        H  0.48855675  0.51815391  0.35255468     0.28100
H283        H  0.38485633  0.08150356  0.36559263     0.18700
H284        H  0.37705127  0.42777987  0.38489894     0.18700
C285        C  0.15268471  0.02675439  0.39272001    -0.07100
C286        C  0.14443656  0.02566411  0.36748133    -0.18200
C287        C  0.11765984  0.49538699  0.35724153     0.10100
C288        C  0.09670153  0.46575797  0.37232480    -0.07000
C289        C  0.10616629  0.96524448  0.39733470    -0.18300
C290        C  0.13351818  0.99542734  0.40776521     0.10100
S291        S  0.11286762  0.49544339  0.32450930    -0.33200
S292        S  0.14162813  0.99233213  0.44027444    -0.33200
H293        H  0.12412624  0.03294389  0.44442154     0.28100
H294        H  0.11820343  0.45113735  0.32319716     0.28100
H295        H  0.15928023  0.04838633  0.35533881     0.18700
H296        H  0.09010145  0.44275545  0.40922735     0.18700
C297        C  0.24616197  0.46663935  0.52010306    -0.07100
C298        C  0.23788427  0.00867898  0.52706800    -0.18200
C299        C  0.24457690  0.04228886  0.51079882     0.10100
C300        C  0.25871402  0.03373669  0.48676096    -0.07000
C301        C  0.26733071  0.49174720  0.47990729    -0.18300
C302        C  0.26074595  0.45818752  0.49615219     0.10100
S303        S  0.23690276  0.09549355  0.52219028    -0.33200
S304        S  0.26929270  0.40509690  0.48478032    -0.33200
H305        H  0.23482150  0.38768690  0.49759849     0.28100
H306        H  0.27034637  0.11282786  0.50846374     0.28100
H307        H  0.22792107  0.01551032  0.54559279     0.18700
H308        H  0.27728505  0.48482629  0.46142957     0.18700
C309        C  0.25247064  0.28114895  0.52016379    -0.07100
C310        C  0.22730913  0.28689492  0.49912073    -0.18200
C311        C  0.22597921  0.25631519  0.48058194     0.10100
C312        C  0.25026983  0.21866704  0.48319107    -0.07000
C313        C  0.27565492  0.21315464  0.50413189    -0.18300
C314        C  0.27627571  0.24325847  0.52279281     0.10100
S315        S  0.19490940  0.26714650  0.45336590    -0.33200
S316        S  0.30608466  0.22988060  0.54994176    -0.33200
H317        H  0.27416906  0.24363948  0.56615919     0.28100
H318        H  0.17908637  0.30717756  0.46040602     0.28100
H319        H  0.20891153  0.31577764  0.49702547     0.18700
H320        H  0.29429732  0.18445289  0.50644188     0.18700
C321        C  0.14886220  0.27756170  0.61343086    -0.07100
C322        C  0.11338762  0.26639046  0.59935760    -0.18200
C323        C  0.08195600  0.23947967  0.60854505     0.10100
C324        C  0.08622736  0.22220728  0.63243360    -0.07000
C325        C  0.12266335  0.23217364  0.64609273    -0.18300
C326        C  0.15407133  0.25897662  0.63680175     0.10100
S327        S  0.03638795  0.23104426  0.58910226    -0.33200
S328        S  0.20095655  0.26646504  0.65523076    -0.33200
H329        H  0.22854820  0.26161477  0.63528179     0.28100
H330        H  0.00685534  0.24008075  0.60759049     0.28100
H331        H  0.10887603  0.28052780  0.58147311     0.18700
H332        H  0.12724328  0.21832483  0.66404474     0.18700
C333        C  0.40493786  0.21928232  0.63332299    -0.07100
C334        C  0.41858927  0.26081077  0.62861808    -0.18200
C335        C  0.39029756  0.29253237  0.62153262     0.10100
C336        C  0.34662117  0.28289879  0.61867696    -0.07000
C337        C  0.33261112  0.24131431  0.62352401    -0.18300
C338        C  0.36126731  0.20946877  0.63103327     0.10100
S339        S  0.41216403  0.34504866  0.61761684    -0.33200
S340        S  0.34006949  0.15787343  0.63842937    -0.33200
H341        H  0.36781096  0.15003584  0.65813590     0.28100
H342        H  0.37803149  0.36529514  0.62936390     0.28100
H343        H  0.45183098  0.26906979  0.63104547     0.18700
H344        H  0.29919502  0.23352980  0.62138120     0.18700
C345        C  0.40491904  0.02092966  0.63933821    -0.07100
C346        C  0.38465585  0.03100261  0.61713790    -0.18200
C347        C  0.35428003  0.00401944  0.60677575     0.10100
C348        C  0.34434480  0.46532360  0.61853059    -0.07000
C349        C  0.36337801  0.45625441  0.64125804    -0.18300
C350        C  0.39407637  0.48291743  0.65143792     0.10100
S351        S  0.32846620  0.02166308  0.57910300    -0.33200
S352        S  0.42059104  0.46463401  0.67873715    -0.33200
H353        H  0.46160175  0.47599207  0.67082071     0.28100
H354        H  0.28784512  0.00710141  0.58588550     0.28100
H355        H  0.39230639  0.06043124  0.60784657     0.18700
H356        H  0.35588547  0.42703070  0.65075310     0.18700
C357        C  0.08759821  0.02298191  0.63429883    -0.07100
C358        C  0.07481939  0.48067541  0.63105943    -0.18200
C359        C  0.10354927  0.44941079  0.62345083     0.10100
C360        C  0.14629824  0.46066028  0.61891979    -0.07000
C361        C  0.15938019  0.00285625  0.62244976    -0.18300
C362        C  0.13050536  0.03412121  0.63018703     0.10100
S363        S  0.08559639  0.39495616  0.62071628    -0.33200
S364        S  0.15061127  0.08697890  0.63534990    -0.33200
H365        H  0.12517246  0.09537291  0.65591446     0.28100
H366        H  0.04249183  0.40242946  0.62622432     0.28100
H367        H  0.04201438  0.47214985  0.63456590     0.18700
H368        H  0.19219554  0.01151078  0.61903321     0.18700
C369        C  0.15750643  0.12620364  0.76793209    -0.07100
C370        C  0.13780389  0.16396385  0.76011895    -0.18200
C371        C  0.10759213  0.16422075  0.74134902     0.10100
C372        C  0.09520320  0.12545281  0.73019748    -0.07000
C373        C  0.11553915  0.08779283  0.73760540    -0.18300
C374        C  0.14600201  0.08755123  0.75629614     0.10100
S375        S  0.08787925  0.21561398  0.73199398    -0.33200
S376        S  0.16730807  0.03631690  0.76473104    -0.33200
H377        H  0.16228103  0.04300208  0.78988646     0.28100
H378        H  0.09343066  0.20719945  0.70700569     0.28100
H379        H  0.14690059  0.19403217  0.76820728     0.18700
H380        H  0.10658825  0.05778228  0.72935778     0.18700
C381        C  0.34411776  0.13133345  0.77020433    -0.07100
C382        C  0.36210932  0.09252692  0.76289945    -0.18200
C383        C  0.39278919  0.09040137  0.74456015     0.10100
C384        C  0.40657138  0.12814311  0.73286376    -0.07000
C385        C  0.38865959  0.16708261  0.74017298    -0.18300
C386        C  0.35840795  0.16922685  0.75888525     0.10100
S387        S  0.41116108  0.03802394  0.73640648    -0.33200
S388        S  0.34142995  0.22150118  0.76821232    -0.33200
H389        H  0.34581134  0.21258542  0.79325169     0.28100
H390        H  0.40332296  0.04456640  0.71143299     0.28100
H391        H  0.35122208  0.06309380  0.77100959     0.18700
H392        H  0.39936301  0.19641084  0.73183888     0.18700
C393        C  0.50231666  0.03609654  0.01812012    -0.07100
C394        C  0.46380375  0.51461684  0.01434349    -0.18200
C395        C  0.46106144  0.48107326  0.99775687     0.10100
C396        C  0.49736772  0.46948512  0.98403808    -0.07000
C397        C  0.03575653  0.99120495  0.98771303    -0.18300
C398        C  0.03847407  0.02468265  0.00430617     0.10100
S399        S  0.41124674  0.45285216  0.99622318    -0.33200
S400        S  0.08817043  0.05306049  0.00589272    -0.33200
H401        H  0.06932226  0.09340045  0.00872520     0.28100
H402        H  0.42991026  0.41240488  0.99355661     0.28100
H403        H  0.43603607  0.52296691  0.02507611     0.18700
H404        H  0.06355242  0.98297288  0.97697264     0.18700
C405        C  0.50217781  0.28605539  0.98421446    -0.07100
C406        C  0.46358341  0.26603073  0.98991489    -0.18200
C407        C  0.46170310  0.23300213  0.00701714     0.10100
C408        C  0.49913101  0.21989568  0.01937960    -0.07000
C409        C  0.03773019  0.24002891  0.01376693    -0.18300
C410        C  0.03956713  0.27326560  0.99675491     0.10100
S411        S  0.41096723  0.20738161  0.01104537    -0.33200
S412        S  0.09001742  0.29973003  0.99321310    -0.33200
H413        H  0.07236233  0.34081645  0.99161046     0.28100
H414        H  0.42802540  0.16596515  0.01173319     0.28100
H415        H  0.43473755  0.27523889  0.98036758     0.18700
H416        H  0.06655278  0.23079620  0.02334075     0.18700
C417        C  0.14804960  0.22145200  0.86577892    -0.07100
C418        C  0.13866651  0.22315801  0.89076893    -0.18200
C419        C  0.10933963  0.25270925  0.89988900     0.10100
C420        C  0.08955775  0.28210559  0.88392090    -0.07000
C421        C  0.09680275  0.27861616  0.85878465    -0.18300
C422        C  0.12522361  0.24829227  0.84956652     0.10100
S423        S  0.09734495  0.25052230  0.93192113    -0.33200
S424        S  0.12998526  0.24441426  0.81692916    -0.33200
H425        H  0.12774146  0.19978198  0.81725219     0.28100
H426        H  0.05328093  0.25525726  0.92808623     0.28100
H427        H  0.15501135  0.20211742  0.90336369     0.18700
H428        H  0.08087865  0.30016375  0.84628392     0.18700
C429        C  0.39332110  0.29569514  0.88488843    -0.07100
C430        C  0.38451783  0.25808732  0.89767450    -0.18200
C431        C  0.35640528  0.22777889  0.88834984     0.10100
C432        C  0.33601916  0.23479768  0.86560470    -0.07000
C433        C  0.34502126  0.27219969  0.85269363    -0.18300
C434        C  0.37243230  0.30302483  0.86225240     0.10100
S435        S  0.34977161  0.17977225  0.90578212    -0.33200
S436        S  0.37655339  0.35212584  0.84540644    -0.33200
H437        H  0.37225628  0.37809780  0.86618592     0.28100
H438        H  0.35956049  0.15387607  0.88565928     0.28100
H439        H  0.40035663  0.25171083  0.91490798     0.18700
H440        H  0.32895907  0.27847288  0.83551772     0.18700
C441        C  0.34773188  0.03988552  0.86878335    -0.07100
C442        C  0.35127598  0.03280643  0.89397775    -0.18200
C443        C  0.37947250  0.50198866  0.90329735     0.10100
C444        C  0.40532485  0.47825186  0.88708727    -0.07000
C445        C  0.40317315  0.48689251  0.86202922    -0.18300
C446        C  0.37481979  0.01724008  0.85278301     0.10100
S447        S  0.38226952  0.49349400  0.93586206    -0.33200
S448        S  0.37508612  0.02615238  0.82037230    -0.33200
H449        H  0.37390311  0.07061961  0.82292569     0.28100
H450        H  0.35289121  0.52522014  0.94259104     0.28100
H451        H  0.33049983  0.05012721  0.90623691     0.18700
H452        H  0.42302003  0.46910255  0.84946143     0.18700
C453        C  0.16229519  0.02671951  0.86659905    -0.07100
C454        C  0.17298603  0.00459573  0.88810837    -0.18200
C455        C  0.14460002  0.97622650  0.89909383     0.10100
C456        C  0.10453370  0.46861885  0.88815638    -0.07000
C457        C  0.09373306  0.49088633  0.86672466    -0.18300
C458        C  0.12155274  0.52044809  0.85620806     0.10100
S459        S  0.16255593  0.94854323  0.92600352    -0.33200
S460        S  0.10212597  0.55059876  0.83047740    -0.33200
H461        H  0.12133012  0.58903855  0.83753528     0.28100
H462        H  0.13133798  0.96733977  0.94094353     0.28100
H463        H  0.20403386  0.00909593  0.89637753     0.18700
H464        H  0.06284054  0.48591135  0.85836923     0.18700
O465        O  0.46980807  0.93821155  0.88642026    -0.86300
O466        O  0.05417346  0.91353856  0.88255451    -0.83400
C467        C  0.07436176  0.93627068  0.89759728     0.97100
O468        O  0.06909173  0.93108769  0.92017837    -0.83400
O469        O  0.02844550  0.91178142  0.96301988    -0.86000
C470        C  0.49645658  0.93598027  0.96535946     1.01700
O471        O  0.46424325  0.93196368  0.95190550    -0.78800
O472        O  0.41879667  0.91616052  0.91054329    -0.79000
C473        C  0.43313380  0.94297980  0.89546319     1.01600
O474        O  0.44409830  0.85137555  0.88158028    -0.86300
O475        O  0.02819828  0.82642787  0.88319329    -0.83400
C476        C  0.06366564  0.81804336  0.89299713     0.97200
O477        O  0.07848088  0.84125451  0.90985816    -0.83400
O478        O  0.03367166  0.82348652  0.95115778    -0.80400
C479        C  0.50206723  0.81928946  0.96497898     1.01600
O480        O  0.46998336  0.84330796  0.96259253    -0.78800
O481        O  0.43145462  0.82647484  0.91811158    -0.79000
C482        C  0.42468285  0.82582524  0.89540215     1.01600
Cr483      Cr  0.49914859  0.88219837  0.88608786     1.93700
Cr484      Cr  0.04842090  0.87718573  0.93466823     1.93200
Cr485      Cr  0.45020667  0.87928778  0.93447541     1.39100
O486        O  0.49938759  0.87947429  0.91848310    -1.24100
O487        O  0.30514189  0.60289936  0.86865086    -0.86300
O488        O  0.27859024  0.68669238  0.87028821    -0.83400
C489        C  0.30336556  0.70545238  0.85573637     0.97100
O490        O  0.29904525  0.70081364  0.83297478    -0.83400
O491        O  0.28235246  0.65987158  0.78954580    -0.86000
C492        C  0.30953439  0.63026429  0.78862490     1.01700
O493        O  0.30605064  0.59841369  0.80247245    -0.78800
O494        O  0.28806478  0.55177457  0.84332534    -0.79000
C495        C  0.31239448  0.56674159  0.85954270     1.01600
O496        O  0.21865459  0.57573137  0.87060423    -0.86300
O497        O  0.19164015  0.65918866  0.86737672    -0.83400
C498        C  0.18420987  0.69476420  0.85749248     0.97200
O499        O  0.20908640  0.70935773  0.84146687    -0.83400
O500        O  0.19320148  0.66145137  0.80062916    -0.86000
C501        C  0.19092203  0.62899335  0.78717318     1.01600
O502        O  0.21822762  0.59976464  0.78932832    -0.78800
O503        O  0.19846369  0.56068644  0.83331790    -0.79000
C504        C  0.19426438  0.55622836  0.85611993     1.01600
Cr505      Cr  0.24851722  0.63118001  0.86659576     1.93700
Cr506      Cr  0.24617533  0.67901895  0.81752398     1.93200
Cr507      Cr  0.25229886  0.58158424  0.81838888     1.39100
O508        O  0.24901920  0.63062857  0.83417278    -1.24100
O509        O  0.29869014  0.90612254  0.62164911    -0.86300
O510        O  0.21360408  0.92581396  0.61870874    -0.83400
C511        C  0.17686830  0.92913231  0.60955813     0.97100
O512        O  0.16512748  0.90472827  0.59258152    -0.83400
O513        O  0.21241708  0.92889691  0.55247232    -0.86000
C514        C  0.24437239  0.93297134  0.53872945     1.01700
O515        O  0.27559692  0.90787232  0.54050090    -0.78800
O516        O  0.31218348  0.92935400  0.58476389    -0.79000
C517        C  0.31630341  0.93265188  0.60762854     1.01600
O518        O  0.27888732  0.81746776  0.61783033    -0.86300
O519        O  0.19347628  0.83700209  0.61958050    -0.83400
C520        C  0.17699855  0.81174813  0.60440259     0.97200
O521        O  0.18204978  0.81746384  0.58176801    -0.83400
O522        O  0.22203713  0.84110223  0.53941076    -0.86000
C523        C  0.25306029  0.81550183  0.53857090     1.01600
O524        O  0.28455410  0.82033317  0.55257829    -0.78800
O525        O  0.32888580  0.84155897  0.59384554    -0.79000
C526        C  0.31626775  0.81521252  0.60958268     1.01600
Cr527      Cr  0.24622299  0.87171588  0.61694335     1.93700
Cr528      Cr  0.19907630  0.87315980  0.56784794     1.93200
Cr529      Cr  0.29647123  0.87474962  0.56911865     1.39100
O530        O  0.24720766  0.87326592  0.58465877    -1.24100
O531        O  0.02868920  0.67379770  0.62966070    -0.86300
O532        O  0.05086572  0.58948311  0.63340985    -0.83400
C533        C  0.05532592  0.55330875  0.64307223     0.97100
O534        O  0.03057557  0.54120628  0.65978629    -0.83400
O535        O  0.05497715  0.59005824  0.69911250    -0.86000
C536        C  0.05974560  0.62278709  0.71218587     1.01700
O537        O  0.03276248  0.65250975  0.71098596    -0.78800
O538        O  0.05205081  0.68888536  0.66628991    -0.79000
C539        C  0.05426009  0.69334169  0.64338600     1.01600
O540        O  0.44045708  0.65184118  0.63398854    -0.86300
O541        O  0.46259301  0.56700156  0.63291966    -0.83400
C542        C  0.43837561  0.54977181  0.64836331     0.97200
O543        O  0.44342902  0.55648041  0.67091111    -0.83400
O544        O  0.46719778  0.59822972  0.71320856    -0.86000
C545        C  0.44050991  0.62830867  0.71398157     1.01600
O546        O  0.44398682  0.65927504  0.69945356    -0.78800
O547        O  0.46404816  0.70286430  0.65758285    -0.79000
C548        C  0.43738409  0.68915677  0.64227767     1.01600
Cr549      Cr  0.99577673  0.62066515  0.63498683     1.93700
Cr550      Cr  0.99895899  0.57510045  0.68449251     1.93200
Cr551      Cr  0.99820667  0.67206897  0.68246626     1.39100
O552        O  0.99763084  0.62258889  0.66726712    -1.24100
O553        O  0.28260285  0.56691686  0.38689146    -0.86300
O554        O  0.19728792  0.58646872  0.38652665    -0.83400
C555        C  0.18114432  0.56104877  0.40187361     0.97100
O556        O  0.18812743  0.56625485  0.42431986    -0.83400
O557        O  0.22827312  0.59226968  0.46647290    -0.86000
C558        C  0.25940639  0.56688078  0.46779252     1.01700
O559        O  0.29002139  0.56969666  0.45296277    -0.78800
O560        O  0.33377863  0.59037586  0.41060356    -0.79000
C561        C  0.32021391  0.56440889  0.39478760     1.01600
O562        O  0.30328664  0.65566109  0.38326259    -0.86300
O563        O  0.21829116  0.67522564  0.38684965    -0.83400
C564        C  0.18178499  0.67910429  0.39604985     0.97200
O565        O  0.16977029  0.65329976  0.41233810    -0.83400
O566        O  0.21757272  0.67851629  0.45155682    -0.86000
C567        C  0.24963396  0.68403926  0.46500421     1.01600
O568        O  0.28075931  0.65845768  0.46400783    -0.78800
O569        O  0.31617098  0.67874634  0.42007323    -0.79000
C570        C  0.31996403  0.68284456  0.39727844     1.01600
Cr571      Cr  0.25046339  0.62111411  0.38827161     1.93700
Cr572      Cr  0.20450499  0.62250123  0.43739239     1.93200
Cr573      Cr  0.30168528  0.62404527  0.43576449     1.39100
O574        O  0.25228021  0.62232346  0.42046974    -1.24100
O575        O  0.46805235  0.92709529  0.37291542    -0.86300
O576        O  0.44535824  0.84327243  0.37035261    -0.83400
C577        C  0.44116440  0.80622855  0.36205629     0.97100
O578        O  0.46648650  0.79222553  0.34600443    -0.83400
O579        O  0.44633407  0.83874720  0.30522837    -0.86000
C580        C  0.44278016  0.87030803  0.29115337     1.01700
O581        O  0.46979054  0.90007268  0.29217070    -0.78800
O582        O  0.45028242  0.94149452  0.33497136    -0.79000
C583        C  0.44490156  0.94652521  0.35757203     1.01600
O584        O  0.05637863  0.90185243  0.37197391    -0.86300
O585        O  0.03305888  0.81769279  0.37339462    -0.83400
C586        C  0.05806235  0.79912963  0.35873077     0.97200
O587        O  0.05519678  0.80522779  0.33604235    -0.83400
O588        O  0.03476981  0.84374766  0.29220682    -0.86000
C589        C  0.06218651  0.87299078  0.29123236     1.01600
O590        O  0.05878217  0.90433618  0.30539964    -0.78800
O591        O  0.03873696  0.95162648  0.34579931    -0.79000
C592        C  0.06273132  0.93789663  0.36263596     1.01600
Cr593      Cr  0.00082923  0.87252277  0.36963959     1.93700
Cr594      Cr  0.00081909  0.82374295  0.32111609     1.93200
Cr595      Cr  0.00422464  0.92069330  0.32081518     1.39100
O596        O  0.00185811  0.87243537  0.33726103    -1.24100
O597        O  0.44748770  0.59471132  0.12030030    -0.86300
O598        O  0.03194446  0.57071892  0.11848302    -0.83400
C599        C  0.06778255  0.56357531  0.10890562     0.97100
O600        O  0.08183322  0.58712567  0.09196229    -0.83400
O601        O  0.03565350  0.57185603  0.05086350    -0.86000
C602        C  0.50379254  0.56907508  0.03706131     1.01700
O603        O  0.47284790  0.59436980  0.03924390    -0.78800
O604        O  0.43590826  0.57245762  0.08313708    -0.79000
C605        C  0.42947807  0.56904474  0.10578280     1.01600
O606        O  0.47313538  0.68279260  0.11749488    -0.86300
O607        O  0.05794400  0.65704443  0.12052360    -0.83400
C608        C  0.07840710  0.68028716  0.10590192     0.97200
O609        O  0.07239768  0.67748812  0.08322805    -0.83400
O610        O  0.03086053  0.66126444  0.04002566    -0.86000
C611        C  0.49906172  0.68606393  0.03828308     1.01600
O612        O  0.46746017  0.68177867  0.05224998    -0.78800
O613        O  0.42208373  0.66077451  0.09337446    -0.79000
C614        C  0.43564137  0.68625960  0.10937409     1.01600
Cr615      Cr  0.50260111  0.62649114  0.11658776     1.93700
Cr616      Cr  0.05134151  0.62464415  0.06782834     1.93200
Cr617      Cr  0.45352290  0.62723856  0.06828680     1.39100
O618        O  0.50269674  0.62615978  0.08419192    -1.24100
O619        O  0.21803362  0.82240225  0.13300282    -0.86300
O620        O  0.19640296  0.90697914  0.13669502    -0.83400
C621        C  0.19062639  0.94275176  0.14660529     0.97100
O622        O  0.21601398  0.95578978  0.16294547    -0.83400
O623        O  0.19932872  0.90892123  0.20417583    -0.86000
C624        C  0.19490424  0.87640790  0.21738337     1.01700
O625        O  0.21842942  0.84419777  0.21436057    -0.78800
O626        O  0.19750291  0.80725794  0.17025284    -0.79000
C627        C  0.19355729  0.80299995  0.14746285     1.01600
O628        O  0.30663357  0.84484006  0.13546354    -0.86300
O629        O  0.28434003  0.92978803  0.13387852    -0.83400
C630        C  0.31027334  0.94747910  0.14827092     0.97200
O631        O  0.30627953  0.94203921  0.17095714    -0.83400
O632        O  0.28838478  0.90096896  0.21418794    -0.86000
C633        C  0.31212319  0.86851190  0.21588146     1.01600
O634        O  0.30667753  0.83729726  0.20185161    -0.78800
O635        O  0.28567220  0.79423068  0.16009318    -0.79000
C636        C  0.31127923  0.80793647  0.14417295     1.01600
Cr637      Cr  0.25140484  0.87591324  0.13744586     1.93700
Cr638      Cr  0.25250304  0.92300353  0.18663726     1.93200
Cr639      Cr  0.25200446  0.82496708  0.18537351     1.39100
O640        O  0.25178997  0.87466167  0.16988778    -1.24100
C641        C  0.10972116  0.71065605  0.11575179    -0.07100
C642        C  0.10945954  0.75255704  0.10701622    -0.18200
C643        C  0.13513657  0.78369433  0.11773715     0.10100
C644        C  0.16237723  0.77275532  0.13734901    -0.07000
C645        C  0.16318930  0.73067640  0.14578692    -0.18300
C646        C  0.13781083  0.69944512  0.13495038     0.10100
S647        S  0.13003602  0.83733116  0.10658096    -0.33200
S648        S  0.14461975  0.64544449  0.14541686    -0.33200
H649        H  0.13940847  0.62701225  0.12222528     0.28100
H650        H  0.13191776  0.85567404  0.12996455     0.28100
H651        H  0.08786678  0.76149158  0.09241069     0.18700
H652        H  0.18507675  0.72169162  0.16024040     0.18700
C653        C  0.34490762  0.77853714  0.13523894    -0.07100
C654        C  0.33568909  0.73485469  0.13564824    -0.18200
C655        C  0.36535047  0.70450528  0.12798912     0.10100
C656        C  0.40552298  0.71774404  0.11948961    -0.07000
C657        C  0.41534189  0.76127001  0.11922981    -0.18300
C658        C  0.38556660  0.79179993  0.12713318     0.10100
S659        S  0.35202155  0.64865304  0.13000408    -0.33200
S660        S  0.40185527  0.84668115  0.12713823    -0.33200
H661        H  0.38334669  0.85622581  0.14987191     0.28100
H662        H  0.30971831  0.65383397  0.13785110     0.28100
H663        H  0.30484638  0.72435352  0.14195830     0.18700
H664        H  0.44615898  0.77151553  0.11267223     0.18700
C665        C  0.40012676  0.53604076  0.11587387    -0.07100
C666        C  0.40154214  0.02750429  0.14113845    -0.18200
C667        C  0.37463414  0.99756602  0.15212345     0.10100
C668        C  0.34375665  0.97608967  0.13786216    -0.07000
C669        C  0.34346673  0.48352489  0.11245987    -0.18300
C670        C  0.37080036  0.51289608  0.10142132     0.10100
S671        S  0.38248711  0.98796240  0.18425764    -0.33200
S672        S  0.36496905  0.52002240  0.06893717    -0.33200
H673        H  0.35897456  0.56426987  0.07077147     0.28100
H674        H  0.38411920  0.94346942  0.18157361     0.28100
H675        H  0.42437919  0.04388403  0.15255827     0.18700
H676        H  0.32081216  0.46713154  0.10092938     0.18700
C677        C  0.09509599  0.52905832  0.11861586    -0.07100
C678        C  0.10435694  0.52852990  0.14365904    -0.18200
C679        C  0.13385612  0.49964209  0.15346200     0.10100
C680        C  0.15546759  0.97080021  0.13791539    -0.07000
C681        C  0.14445704  0.97002678  0.11303204    -0.18300
C682        C  0.11441036  0.99847121  0.10333947     0.10100
S683        S  0.14138473  0.50030566  0.18603482    -0.33200
S684        S  0.10127794  0.99365093  0.07144988    -0.33200
H685        H  0.05788161  0.50241003  0.07476052     0.28100
H686        H  0.13910985  0.95593508  0.18804232     0.28100
H687        H  0.08908947  0.55135043  0.15562485     0.18700
H688        H  0.15990657  0.94760035  0.10090275     0.18700
C689        C  0.16224605  0.87563918  0.23683700    -0.07100
C690        C  0.13879973  0.83828536  0.24045528    -0.18200
C691        C  0.10707185  0.83573533  0.25835379     0.10100
C692        C  0.09720373  0.87196433  0.27278200    -0.07000
C693        C  0.12133146  0.90910780  0.26920163    -0.18300
C694        C  0.15409379  0.91099947  0.25197561     0.10100
S695        S  0.08139224  0.78498167  0.26186771    -0.33200
S696        S  0.18566432  0.95873601  0.25113107    -0.33200
H697        H  0.22457488  0.93756311  0.24716026     0.28100
H698        H  0.08775543  0.78373813  0.28730396     0.28100
H699        H  0.14533214  0.81064489  0.22921878     0.18700
H700        H  0.11492577  0.93718530  0.27999649     0.18700
C701        C  0.34605853  0.86775391  0.23482383    -0.07100
C702        C  0.36347042  0.90667236  0.24238781    -0.18200
C703        C  0.39385891  0.90878503  0.26105402     0.10100
C704        C  0.40840355  0.87093714  0.27242130    -0.07000
C705        C  0.39040963  0.83206394  0.26514294    -0.18300
C706        C  0.35979798  0.83002323  0.24657056     0.10100
S707        S  0.41080340  0.96106572  0.27019782    -0.33200
S708        S  0.33801220  0.77855845  0.23969926    -0.33200
H709        H  0.35589218  0.77781334  0.21615990     0.28100
H710        H  0.40529756  0.95274084  0.29520836     0.28100
H711        H  0.35285094  0.93598809  0.23391355     0.18700
H712        H  0.40067077  0.80271398  0.27373519     0.18700
C713        C  0.15141200  0.71190996  0.38701783    -0.07100
C714        C  0.10793481  0.70659046  0.39240702    -0.18200
C715        C  0.07701963  0.73471333  0.38344882     0.10100
C716        C  0.08950041  0.76867608  0.36834051    -0.07000
C717        C  0.13263679  0.77435221  0.36287597    -0.18300
C718        C  0.16380267  0.74725639  0.37262163     0.10100
S719        S  0.02146004  0.72557147  0.39026626    -0.33200
S720        S  0.21851037  0.76125177  0.36705166    -0.33200
H721        H  0.23153890  0.75409098  0.39132727     0.28100
H722        H  0.02761501  0.69166198  0.40666780     0.28100
H723        H  0.09788296  0.67976881  0.40333174     0.18700
H724        H  0.14223042  0.80110376  0.35170282     0.18700
C725        C  0.40737854  0.77806778  0.37130686    -0.07100
C726        C  0.38604388  0.75212876  0.35451907    -0.18200
C727        C  0.35515338  0.72307601  0.36202861     0.10100
C728        C  0.34649640  0.71799746  0.38730247    -0.07000
C729        C  0.36642663  0.74574812  0.40392101    -0.18300
C730        C  0.39667957  0.77540164  0.39628361     0.10100
S731        S  0.32835171  0.69415798  0.33816253    -0.33200
S732        S  0.42241322  0.80661795  0.41959382    -0.33200
H733        H  0.46357813  0.80197287  0.40988247     0.28100
H734        H  0.28747380  0.70239934  0.34750342     0.28100
H735        H  0.39324055  0.75484706  0.33522119     0.18700
H736        H  0.35982409  0.74329018  0.42327866     0.18700
C737        C  0.34984140  0.53287275  0.38453815    -0.07100
C738        C  0.38309500  0.54795488  0.36988690    -0.18200
C739        C  0.41411193  0.52039049  0.36063230     0.10100
C740        C  0.41230762  0.97663648  0.36632186    -0.07000
C741        C  0.37892087  0.96142267  0.38087092    -0.18300
C742        C  0.34730158  0.98889646  0.38980521     0.10100
S743        S  0.45588224  0.54305339  0.34230357    -0.33200
S744        S  0.30525025  0.96544603  0.40777173    -0.33200
H745        H  0.28745952  0.50262902  0.41740005     0.28100
H746        H  0.48831693  0.01815767  0.35218246     0.28100
H747        H  0.38516578  0.58162555  0.36585115     0.18700
H748        H  0.37735283  0.92782535  0.38516970     0.18700
C749        C  0.15265633  0.52673655  0.39278730    -0.07100
C750        C  0.14471623  0.52538868  0.36751971    -0.18200
C751        C  0.11738765  0.99566267  0.35719924     0.10100
C752        C  0.09671942  0.96578581  0.37225829    -0.07000
C753        C  0.10583303  0.46546310  0.39743914    -0.18300
C754        C  0.13316360  0.49566483  0.40787078     0.10100
S755        S  0.11225140  0.99604960  0.32448284    -0.33200
S756        S  0.14075621  0.49297021  0.44043221    -0.33200
H757        H  0.12356969  0.53379802  0.44430537     0.28100
H758        H  0.11778032  0.95178570  0.32300951     0.28100
H759        H  0.15980979  0.54790489  0.35535249     0.18700
H760        H  0.09068403  0.94233643  0.40910359     0.18700
C761        C  0.24614755  0.96665072  0.52009440    -0.07100
C762        C  0.23803239  0.50867987  0.52710389    -0.18200
C763        C  0.24475624  0.54229059  0.51083930     0.10100
C764        C  0.25879032  0.53372888  0.48678330    -0.07000
C765        C  0.26737993  0.99176800  0.47991159    -0.18300
C766        C  0.26082945  0.95820873  0.49616111     0.10100
S767        S  0.23724862  0.59550321  0.52225412    -0.33200
S768        S  0.26955528  0.90512865  0.48481550    -0.33200
H769        H  0.23509083  0.88763511  0.49760160     0.28100
H770        H  0.27066782  0.61277646  0.50848215     0.28100
H771        H  0.22814894  0.51551339  0.54564101     0.18700
H772        H  0.27741781  0.98485122  0.46144499     0.18700
C773        C  0.25251301  0.78119193  0.52016679    -0.07100
C774        C  0.22734472  0.78692504  0.49912515    -0.18200
C775        C  0.22602128  0.75633932  0.48058942     0.10100
C776        C  0.25030283  0.71868718  0.48320806    -0.07000
C777        C  0.27570303  0.71319283  0.50414391    -0.18300
C778        C  0.27633326  0.74331072  0.52279675     0.10100
S779        S  0.19492843  0.76714348  0.45337840    -0.33200
S780        S  0.30616930  0.72995639  0.54993966    -0.33200
H781        H  0.27424847  0.74368365  0.56616247     0.28100
H782        H  0.17992312  0.80761915  0.46016215     0.28100
H783        H  0.20891496  0.81578861  0.49703596     0.18700
H784        H  0.29434800  0.68449569  0.50645698     0.18700
C785        C  0.14886464  0.77757141  0.61342685    -0.07100
C786        C  0.11340238  0.76638654  0.59934698    -0.18200
C787        C  0.08197094  0.73947171  0.60853075     0.10100
C788        C  0.08622970  0.72221067  0.63242279    -0.07000
C789        C  0.12265468  0.73219002  0.64608844    -0.18300
C790        C  0.15406343  0.75899482  0.63680065     0.10100
S791        S  0.03641957  0.73101507  0.58907812    -0.33200
S792        S  0.20093726  0.76649569  0.65523776    -0.33200
H793        H  0.22854226  0.76163155  0.63529567     0.28100
H794        H  0.00687044  0.74007594  0.60755463     0.28100
H795        H  0.10889974  0.78051582  0.58145956     0.18700
H796        H  0.12722593  0.71834975  0.66404339     0.18700
C797        C  0.40494266  0.71927374  0.63329726    -0.07100
C798        C  0.41858946  0.76080976  0.62860826    -0.18200
C799        C  0.39029431  0.79253752  0.62153508     0.10100
C800        C  0.34661970  0.78290286  0.61867157    -0.07000
C801        C  0.33261491  0.74130841  0.62349700    -0.18300
C802        C  0.36127440  0.70945598  0.63099490     0.10100
S803        S  0.41215382  0.84506272  0.61764502    -0.33200
S804        S  0.34008369  0.65784290  0.63835648    -0.33200
H805        H  0.36780119  0.64998790  0.65807180     0.28100
H806        H  0.37801588  0.86529061  0.62939834     0.28100
H807        H  0.45183056  0.76906909  0.63103898     0.18700
H808        H  0.29920153  0.73352187  0.62134570     0.18700
C809        C  0.40496041  0.52090009  0.63930930    -0.07100
C810        C  0.38470298  0.53096867  0.61710623    -0.18200
C811        C  0.35432475  0.50398660  0.60674421     0.10100
C812        C  0.34430788  0.96535274  0.61856029    -0.07000
C813        C  0.36333993  0.95628319  0.64128773    -0.18300
C814        C  0.39403673  0.98294714  0.65146738     0.10100
S815        S  0.32850978  0.52163265  0.57907256    -0.33200
S816        S  0.42055774  0.96466119  0.67876404    -0.33200
H817        H  0.46156779  0.97600918  0.67084165     0.28100
H818        H  0.28788735  0.50707976  0.58585840     0.28100
H819        H  0.39235508  0.56039588  0.60781440     0.18700
H820        H  0.35585318  0.92705568  0.65078064     0.18700
C821        C  0.08760920  0.52298970  0.63426935    -0.07100
C822        C  0.07482343  0.98065879  0.63110424    -0.18200
C823        C  0.10355889  0.94940133  0.62349130     0.10100
C824        C  0.14629608  0.96066677  0.61893941    -0.07000
C825        C  0.15939486  0.50284326  0.62244117    -0.18300
C826        C  0.13052400  0.53411571  0.63017302     0.10100
S827        S  0.08563133  0.89493594  0.62077458    -0.33200
S828        S  0.15064334  0.58696440  0.63534862    -0.33200
H829        H  0.12518514  0.59536303  0.65590453     0.28100
H830        H  0.04253969  0.90238321  0.62632649     0.28100
H831        H  0.04202589  0.97212171  0.63462288     0.18700
H832        H  0.19221759  0.51148703  0.61903775     0.18700
C833        C  0.15751329  0.62621093  0.76791273    -0.07100
C834        C  0.13778809  0.66396606  0.76011078    -0.18200
C835        C  0.10757177  0.66422067  0.74134376     0.10100
C836        C  0.09520408  0.62545434  0.73018229    -0.07000
C837        C  0.11555958  0.58779921  0.73758079    -0.18300
C838        C  0.14602441  0.58756009  0.75627020     0.10100
S839        S  0.08782440  0.71561103  0.73200686    -0.33200
S840        S  0.16735279  0.53633017  0.76469551    -0.33200
H841        H  0.16230798  0.54299523  0.78985188     0.28100
H842        H  0.09338594  0.70722952  0.70701547     0.28100
H843        H  0.14687006  0.69403351  0.76820560     0.18700
H844        H  0.10662319  0.55778988  0.72932668     0.18700
C845        C  0.34413836  0.63134372  0.77019042    -0.07100
C846        C  0.36211833  0.59253418  0.76288127    -0.18200
C847        C  0.39279566  0.59040557  0.74454087     0.10100
C848        C  0.40658801  0.62814724  0.73284881    -0.07000
C849        C  0.38869388  0.66709052  0.74016535    -0.18300
C850        C  0.35844296  0.66923724  0.75887777     0.10100
S851        S  0.41114908  0.53802536  0.73637898    -0.33200
S852        S  0.34148202  0.72151293  0.76821224    -0.33200
H853        H  0.34584849  0.71258136  0.79325049     0.28100
H854        H  0.40331454  0.54458055  0.71140608     0.28100
H855        H  0.35122187  0.56310147  0.77098785     0.18700
H856        H  0.39940852  0.69641840  0.73183566     0.18700
C857        C  0.50229252  0.53611952  0.01812060    -0.07100
C858        C  0.46382897  0.01459041  0.01434539    -0.18200
C859        C  0.46108573  0.98104618  0.99775927     0.10100
C860        C  0.49738980  0.96945912  0.98403862    -0.07000
C861        C  0.03573414  0.49123047  0.98770821    -0.18300
C862        C  0.03845398  0.52470556  0.00430206     0.10100
S863        S  0.41127220  0.95282254  0.99622794    -0.33200
S864        S  0.08815604  0.55307297  0.00589394    -0.33200
H865        H  0.06931615  0.59341636  0.00872819     0.28100
H866        H  0.42993639  0.91237650  0.99355691     0.28100
H867        H  0.43606227  0.02293856  0.02507961     0.18700
H868        H  0.06353086  0.48299608  0.97696932     0.18700
C869        C  0.50215206  0.78605513  0.98421783    -0.07100
C870        C  0.46355854  0.76602690  0.98991415    -0.18200
C871        C  0.46167669  0.73300922  0.00702207     0.10100
C872        C  0.49910294  0.71991699  0.01939030    -0.07000
C873        C  0.03771034  0.74004815  0.01377920    -0.18300
C874        C  0.03954584  0.77327605  0.99676242     0.10100
S875        S  0.41094271  0.70738536  0.01105157    -0.33200
S876        S  0.08999639  0.79973717  0.99321261    -0.33200
H877        H  0.07234221  0.84082269  0.99159861     0.28100
H878        H  0.42800405  0.66597063  0.01174579     0.28100
H879        H  0.43471612  0.77522354  0.98035945     0.18700
H880        H  0.06653395  0.73081693  0.02335208     0.18700
C881        C  0.14804185  0.72144833  0.86575345    -0.07100
C882        C  0.13865061  0.72313621  0.89074294    -0.18200
C883        C  0.10931600  0.75267589  0.89986669     0.10100
C884        C  0.08953473  0.78207987  0.88390328    -0.07000
C885        C  0.09678429  0.77860574  0.85876643    -0.18300
C886        C  0.12521312  0.74829220  0.84954427     0.10100
S887        S  0.09731431  0.75046781  0.93189794    -0.33200
S888        S  0.12998131  0.74443115  0.81690655    -0.33200
H889        H  0.12774829  0.69979816  0.81722241     0.28100
H890        H  0.05325248  0.75522495  0.92806346     0.28100
H891        H  0.15499546  0.70209095  0.90333485     0.18700
H892        H  0.08085971  0.80015861  0.84626893     0.18700
C893        C  0.39331954  0.79570090  0.88487938    -0.07100
C894        C  0.38452363  0.75808479  0.89765896    -0.18200
C895        C  0.35641123  0.72777922  0.88833111     0.10100
C896        C  0.33601984  0.73480812  0.86558860    -0.07000
C897        C  0.34501461  0.77221869  0.85268386    -0.18300
C898        C  0.37242351  0.80304214  0.86224685     0.10100
S899        S  0.34978287  0.67976392  0.90575607    -0.33200
S900        S  0.37653051  0.85215669  0.84541272    -0.33200
H901        H  0.37224626  0.87811265  0.86619965     0.28100
H902        H  0.35957407  0.65387851  0.88562902     0.28100
H903        H  0.40036755  0.75170013  0.91488996     0.18700
H904        H  0.32894721  0.77849997  0.83551043     0.18700
C905        C  0.34772540  0.53988883  0.86876671    -0.07100
C906        C  0.35126119  0.53281168  0.89396170    -0.18200
C907        C  0.37949392  0.00198602  0.90330948     0.10100
C908        C  0.40534851  0.97825832  0.88709605    -0.07000
C909        C  0.40318897  0.98690150  0.86203889    -0.18300
C910        C  0.37481438  0.51723786  0.85276964     0.10100
S911        S  0.38229521  0.99348083  0.93587331    -0.33200
S912        S  0.37509856  0.52615505  0.82035915    -0.33200
H913        H  0.37390859  0.57062205  0.82291317     0.28100
H914        H  0.35286058  0.02515321  0.94260471     0.28100
H915        H  0.33048423  0.55013654  0.90621827     0.18700
H916        H  0.42303462  0.96911505  0.84946855     0.18700
C917        C  0.16228637  0.52673765  0.86657338    -0.07100
C918        C  0.17297498  0.50461860  0.88808466    -0.18200
C919        C  0.14458518  0.47625911  0.89907515     0.10100
C920        C  0.10455301  0.96858148  0.88817033    -0.07000
C921        C  0.09375148  0.99085397  0.86674113    -0.18300
C922        C  0.12156488  0.02042602  0.85623098     0.10100
S923        S  0.16254361  0.44857719  0.92598458    -0.33200
S924        S  0.10213075  0.05058798  0.83050674    -0.33200
H925        H  0.12132778  0.08902718  0.83757206     0.28100
H926        H  0.13133160  0.46737980  0.94092611     0.28100
H927        H  0.20402516  0.50911434  0.89635163     0.18700
H928        H  0.06286081  0.98587730  0.85838356     0.18700
O929        O  0.96979137  0.43822188  0.88643048    -0.86300
O930        O  0.55416091  0.41355385  0.88253950    -0.83400
C931        C  0.57433528  0.43630947  0.89757616     0.97100
O932        O  0.56905824  0.43115070  0.92015878    -0.83400
O933        O  0.52843396  0.41185106  0.96300959    -0.86000
C934        C  0.99644340  0.43597157  0.96536989     1.01700
O935        O  0.96422631  0.43194576  0.95192046    -0.78800
O936        O  0.91878462  0.41616529  0.91055680    -0.79000
C937        C  0.93311717  0.44298442  0.89547452     1.01600
O938        O  0.94409187  0.35138906  0.88158058    -0.86300
O939        O  0.52821968  0.32643694  0.88320784    -0.83400
C940        C  0.56369593  0.31808297  0.89300911     0.97200
O941        O  0.57850201  0.34131311  0.90986399    -0.83400
O942        O  0.53370309  0.32355128  0.95116940    -0.80400
C943        C  0.00207949  0.31927315  0.96497428     1.01600
O944        O  0.96998576  0.34328012  0.96259016    -0.78800
O945        O  0.93145599  0.32647153  0.91810808    -0.79000
C946        C  0.92468035  0.32583105  0.89539912     1.01600
Cr947      Cr  0.99914007  0.38221496  0.88609189     1.93700
Cr948      Cr  0.54842261  0.37724767  0.93466525     1.93200
Cr949      Cr  0.95020155  0.37927824  0.93448081     1.39100
O950        O  0.99938242  0.37948393  0.91848710    -1.24100
O951        O  0.80513554  0.10289633  0.86868045    -0.86300
O952        O  0.77859738  0.18669434  0.87029328    -0.83400
C953        C  0.80337497  0.20544228  0.85573670     0.97100
O954        O  0.79905855  0.20078450  0.83297580    -0.83400
O955        O  0.78232831  0.15982441  0.78955178    -0.86000
C956        C  0.80951484  0.13022229  0.78862893     1.01700
O957        O  0.80604538  0.09837957  0.80248386    -0.78800
O958        O  0.78807304  0.05176760  0.84335330    -0.79000
C959        C  0.81239620  0.06673987  0.85957264     1.01600
O960        O  0.71864679  0.07573851  0.87063606    -0.86300
O961        O  0.69163991  0.15920119  0.86738971    -0.83400
C962        C  0.68423038  0.19478156  0.85750590     0.97200
O963        O  0.70911715  0.20935718  0.84148091    -0.83400
O964        O  0.69319059  0.16141959  0.80065659    -0.86000
C965        C  0.69090206  0.12895718  0.78720409     1.01600
O966        O  0.71820852  0.09972746  0.78935643    -0.78800
O967        O  0.69847198  0.06066834  0.83335000    -0.79000
C968        C  0.69426765  0.05622188  0.85615169     1.01600
Cr969      Cr  0.74851511  0.13118242  0.86661567     1.93700
Cr970      Cr  0.74617769  0.17899175  0.81753615     1.93200
Cr971      Cr  0.75229857  0.08156008  0.81841394     1.39100
O972        O  0.74902183  0.13061063  0.83419226    -1.24100
O973        O  0.79870190  0.40612461  0.62164655    -0.86300
O974        O  0.71361354  0.42580116  0.61873720    -0.83400
C975        C  0.67686953  0.42911250  0.60959759     0.97100
O976        O  0.66511656  0.40470412  0.59262733    -0.83400
O977        O  0.71236877  0.42891538  0.55251282    -0.86000
C978        C  0.74430983  0.43299061  0.53875941     1.01700
O979        O  0.77552426  0.40787327  0.54050723    -0.78800
O980        O  0.81217425  0.42935509  0.58475701    -0.79000
C981        C  0.81630703  0.43265267  0.60762175     1.01600
O982        O  0.77890861  0.31747034  0.61783081    -0.86300
O983        O  0.69350060  0.33698053  0.61960758    -0.83400
C984        C  0.67701403  0.31172943  0.60443066     0.97200
O985        O  0.68204486  0.31745666  0.58179522    -0.83400
O986        O  0.72197593  0.34112725  0.53942882    -0.86000
C987        C  0.75297566  0.31550032  0.53858942     1.01600
O988        O  0.78449007  0.32032808  0.55258277    -0.78800
O989        O  0.82888585  0.34156029  0.59383040    -0.79000
C990        C  0.81628221  0.31521870  0.60957405     1.01600
Cr991      Cr  0.74623757  0.37170953  0.61695767     1.93700
Cr992      Cr  0.69904544  0.37316348  0.56787903     1.93200
Cr993      Cr  0.79643821  0.37474905  0.56911571     1.39100
O994        O  0.74719249  0.37326660  0.58467384    -1.24100
O995        O  0.52868370  0.17379533  0.62968991    -0.86300
O996        O  0.55085358  0.08947840  0.63344495    -0.83400
C997        C  0.55530322  0.05330233  0.64310707     0.97100
O998        O  0.53054188  0.04120187  0.65981635    -0.83400
O999        O  0.55494248  0.09004440  0.69914694    -0.86000
C1000       C  0.55971926  0.12277383  0.71221902     1.01700
O1001       O  0.53274981  0.15250921  0.71101431    -0.78800
O1002       O  0.55204656  0.18888039  0.66631838    -0.79000
C1003       C  0.55426113  0.19333255  0.64341448     1.01600
O1004       O  0.94045021  0.15186065  0.63400220    -0.86300
O1005       O  0.96255639  0.06701895  0.63293774    -0.83400
C1006       C  0.93834162  0.04980654  0.64838887     0.97200
O1007       O  0.94341945  0.05650724  0.67093485    -0.83400
O1008       O  0.96721349  0.09824473  0.71322340    -0.86000
C1009       C  0.94051045  0.12831124  0.71398957     1.01600
O1010       O  0.94398940  0.15927962  0.69946298    -0.78800
O1011       O  0.96405294  0.20287824  0.65759576    -0.79000
C1012       C  0.93738603  0.18917662  0.64229130     1.01600
Cr1013     Cr  0.49576725  0.12066390  0.63501589     1.93700
Cr1014     Cr  0.49892610  0.07510156  0.68452050     1.93200
Cr1015     Cr  0.49819692  0.17207240  0.68249344     1.39100
O1016       O  0.49761490  0.12259039  0.66729580    -1.24100
O1017       O  0.78260769  0.06694187  0.38690599    -0.86300
O1018       O  0.69730136  0.08651331  0.38649779    -0.83400
C1019       C  0.68114857  0.06108322  0.40183428     0.97100
O1020       O  0.68807861  0.06629759  0.42428518    -0.83400
O1021       O  0.72819334  0.09228457  0.46644936    -0.86000
C1022       C  0.75933607  0.06690990  0.46778434     1.01700
O1023       O  0.78997354  0.06973933  0.45296864    -0.78800
O1024       O  0.83376635  0.09044466  0.41061341    -0.79000
C1025       C  0.82022234  0.06446096  0.39480039     1.01600
O1026       O  0.80329989  0.15568578  0.38327405    -0.86300
O1027       O  0.71830262  0.17526816  0.38683041    -0.83400
C1028       C  0.68179454  0.17915856  0.39602772     0.97200
O1029       O  0.66976399  0.15335213  0.41231077    -0.83400
O1030       O  0.71751584  0.17854144  0.45155068    -0.86000
C1031       C  0.74956141  0.18406017  0.46501052     1.01600
O1032       O  0.78069409  0.15848908  0.46401510    -0.78800
O1033       O  0.81612395  0.17880539  0.42008357    -0.79000
C1034       C  0.81994732  0.18288693  0.39728887     1.01600
Cr1035     Cr  0.75047059  0.12114907  0.38826575     1.93700
Cr1036     Cr  0.70445865  0.12253594  0.43737043     1.93200
Cr1037     Cr  0.80164290  0.12409472  0.43577184     1.39100
O1038       O  0.75225085  0.12236261  0.42046403    -1.24100
O1039       O  0.96799289  0.42711283  0.37291782    -0.86300
O1040       O  0.94530179  0.34330255  0.37032036    -0.83400
C1041       C  0.94112837  0.30625581  0.36202906     0.97100
O1042       O  0.96645487  0.29226479  0.34597668    -0.83400
O1043       O  0.94631597  0.33882768  0.30521151    -0.86000
C1044       C  0.94277176  0.37039421  0.29114030     1.01700
O1045       O  0.96976956  0.40017125  0.29217144    -0.78800
O1046       O  0.95031495  0.44162406  0.33497206    -0.79000
C1047       C  0.94488505  0.44658729  0.35757354     1.01600
O1048       O  0.55635627  0.40186041  0.37199415    -0.86300
O1049       O  0.53303441  0.31770079  0.37337145    -0.83400
C1050       C  0.55804442  0.29914513  0.35870835     0.97200
O1051       O  0.55518602  0.30524399  0.33601969    -0.83400
O1052       O  0.53478718  0.34378988  0.29218975    -0.86000
C1053       C  0.56222912  0.37300917  0.29122978     1.01600
O1054       O  0.55884211  0.40434395  0.30540615    -0.78800
O1055       O  0.53878009  0.45163978  0.34580696    -0.79000
C1056       C  0.56273028  0.43790789  0.36266510     1.01600
Cr1057     Cr  0.50081008  0.37252874  0.36962282     1.93700
Cr1058     Cr  0.50082301  0.32377789  0.32108929     1.93200
Cr1059     Cr  0.50427707  0.42072198  0.32080553     1.39100
O1060       O  0.50187327  0.37245968  0.33724440    -1.24100
O1061       O  0.94750301  0.09472145  0.12031129    -0.86300
O1062       O  0.53192565  0.07070821  0.11849171    -0.83400
C1063       C  0.56776470  0.06355549  0.10891721     0.97100
O1064       O  0.58182202  0.08710192  0.09197300    -0.83400
O1065       O  0.53566279  0.07185920  0.05085995    -0.86000
C1066       C  0.00382041  0.06902695  0.03707074     1.01700
O1067       O  0.97286578  0.09430999  0.03925427    -0.78800
O1068       O  0.93593427  0.07243344  0.08315534    -0.79000
C1069       C  0.92950000  0.06903931  0.10580147     1.01600
O1070       O  0.97315480  0.18279502  0.11748654    -0.86300
O1071       O  0.55792596  0.15704094  0.12053869    -0.83400
C1072       C  0.57839917  0.18028250  0.10592032     0.97200
O1073       O  0.57240471  0.17747652  0.08324533    -0.83400
O1074       O  0.53088734  0.16127544  0.04003239    -0.86000
C1075       C  0.99907578  0.18601562  0.03826692     1.01600
O1076       O  0.96746820  0.18173078  0.05223014    -0.78800
O1077       O  0.92210207  0.16076646  0.09336920    -0.79000
C1078       C  0.93566058  0.18626120  0.10936472     1.01600
Cr1079     Cr  0.00261767  0.12648974  0.11658882     1.93700
Cr1080     Cr  0.55134703  0.12463886  0.06783693     1.93200
Cr1081     Cr  0.95354004  0.12720456  0.06828806     1.39100
O1082       O  0.00271464  0.12614201  0.08419230    -1.24100
O1083       O  0.71805081  0.32242882  0.13299358    -0.86300
O1084       O  0.69641544  0.40700571  0.13668672    -0.83400
C1085       C  0.69061659  0.44276812  0.14660554     0.97100
O1086       O  0.71598351  0.45580670  0.16295616    -0.83400
O1087       O  0.69933935  0.40892074  0.20418108    -0.86000
C1088       C  0.69493955  0.37640394  0.21738719     1.01700
O1089       O  0.71847246  0.34420232  0.21435652    -0.78800
O1090       O  0.69752228  0.30728368  0.17024435    -0.79000
C1091       C  0.69357342  0.30302532  0.14745412     1.01600
O1092       O  0.80666195  0.34488125  0.13545598    -0.86300
O1093       O  0.78434427  0.42982832  0.13387880    -0.83400
C1094       C  0.81026221  0.44752844  0.14827641     0.97200
O1095       O  0.80625853  0.44208936  0.17096079    -0.83400
O1096       O  0.78839858  0.40098792  0.21417553    -0.86000
C1097       C  0.81215763  0.36854406  0.21585332     1.01600
O1098       O  0.80671196  0.33733144  0.20182208    -0.78800
O1099       O  0.78568527  0.29425988  0.16006992    -0.79000
C1100       C  0.81130314  0.30797068  0.14415727     1.01600
Cr1101     Cr  0.75142065  0.37594639  0.13743887     1.93700
Cr1102     Cr  0.75249652  0.42302563  0.18663751     1.93200
Cr1103     Cr  0.75203016  0.32499040  0.18535857     1.39100
O1104       O  0.75179858  0.37468998  0.16988016    -1.24100
C1105       C  0.60970830  0.21066131  0.11577235    -0.07100
C1106       C  0.60948049  0.25254739  0.10701110    -0.18200
C1107       C  0.63517014  0.28369115  0.11771757     0.10100
C1108       C  0.66239008  0.27277533  0.13734345    -0.07000
C1109       C  0.66316563  0.23071206  0.14580880    -0.18300
C1110       C  0.63777637  0.19947349  0.13498614     0.10100
S1111       S  0.63011219  0.33730827  0.10652383    -0.33200
S1112       S  0.64454978  0.14549040  0.14548951    -0.33200
H1113       H  0.63934598  0.12701195  0.12230943     0.28100
H1114       H  0.63196802  0.35569443  0.12989673     0.28100
H1115       H  0.58790640  0.26146697  0.09239267     0.18700
H1116       H  0.68503512  0.22174183  0.16027501     0.18700
C1117       C  0.84493294  0.27856608  0.13522294    -0.07100
C1118       C  0.83571179  0.23488349  0.13563557    -0.18200
C1119       C  0.86537137  0.20452692  0.12798128     0.10100
C1120       C  0.90554322  0.21775657  0.11947594    -0.07000
C1121       C  0.91536678  0.26128228  0.11921414    -0.18300
C1122       C  0.88559683  0.29181916  0.12711871     0.10100
S1123       S  0.85204375  0.14867649  0.13001375    -0.33200
S1124       S  0.90190216  0.34669489  0.12713269    -0.33200
H1125       H  0.88338700  0.35623583  0.14986509     0.28100
H1126       H  0.80976041  0.15386165  0.13789490     0.28100
H1127       H  0.80486808  0.22438650  0.14194655     0.18700
H1128       H  0.94618651  0.27152237  0.11265678     0.18700
C1129       C  0.90014919  0.03604271  0.11590094    -0.07100
C1130       C  0.90150219  0.52758506  0.14115912    -0.18200
C1131       C  0.87457717  0.49766685  0.15214645     0.10100
C1132       C  0.84374909  0.47613834  0.13787563    -0.07000
C1133       C  0.84352082  0.98349417  0.11249199    -0.18300
C1134       C  0.87085369  0.01285930  0.10144914     0.10100
S1135       S  0.88233809  0.48816783  0.18429815    -0.33200
S1136       S  0.86505745  0.01992910  0.06895899    -0.33200
H1137       H  0.85902085  0.06417427  0.07076873     0.28100
H1138       H  0.88405775  0.44367032  0.18165550     0.28100
H1139       H  0.92429957  0.54400566  0.15258476     0.18700
H1140       H  0.82089527  0.96706558  0.10095887     0.18700
C1141       C  0.59507098  0.02902996  0.11863136    -0.07100
C1142       C  0.60435495  0.02851746  0.14367223    -0.18200
C1143       C  0.63385845  0.99963118  0.15347506     0.10100
C1144       C  0.65545738  0.47080759  0.13790989    -0.07000
C1145       C  0.64454467  0.47011165  0.11301264    -0.18300
C1146       C  0.61450973  0.49856052  0.10331446     0.10100
S1147       S  0.64140601  0.00031132  0.18604650    -0.33200
S1148       S  0.60154012  0.49386000  0.07139766    -0.33200
H1149       H  0.55779705  0.00238743  0.07479649     0.28100
H1150       H  0.63902005  0.45577257  0.18800789     0.28100
H1151       H  0.58910198  0.05135122  0.15563683     0.18700
H1152       H  0.66007053  0.44774844  0.10087642     0.18700
C1153       C  0.66230065  0.37562617  0.23684746    -0.07100
C1154       C  0.63878626  0.33830603  0.24042644    -0.18200
C1155       C  0.60704976  0.33576364  0.25831948     0.10100
C1156       C  0.59725294  0.37196730  0.27278531    -0.07000
C1157       C  0.62145693  0.40907311  0.26924674    -0.18300
C1158       C  0.65422151  0.41095391  0.25202259     0.10100
S1159       S  0.58125383  0.28505560  0.26176835    -0.33200
S1160       S  0.68588440  0.45863182  0.25122224    -0.33200
H1161       H  0.72474882  0.43740116  0.24720620     0.28100
H1162       H  0.58763146  0.28369218  0.28720160     0.28100
H1163       H  0.64526437  0.31069154  0.22915931     0.18700
H1164       H  0.61510801  0.43712704  0.28007022     0.18700
C1165       C  0.84610951  0.36779703  0.23478362    -0.07100
C1166       C  0.86348119  0.40672673  0.24236046    -0.18200
C1167       C  0.89385010  0.40885238  0.26103596     0.10100
C1168       C  0.90842276  0.37100863  0.27239386    -0.07000
C1169       C  0.89048523  0.33212140  0.26509382    -0.18300
C1170       C  0.85988711  0.33006726  0.24651579     0.10100
S1171       S  0.91071642  0.46114065  0.27021220    -0.33200
S1172       S  0.83816009  0.27858488  0.23962486    -0.33200
H1173       H  0.85601334  0.27789852  0.21607823     0.28100
H1174       H  0.90521479  0.45276326  0.29521761     0.28100
H1175       H  0.85283410  0.43603931  0.23389615     0.18700
H1176       H  0.90077405  0.30277455  0.27367621     0.18700
C1177       C  0.65142702  0.21197392  0.38699989    -0.07100
C1178       C  0.60796447  0.20671109  0.39244780    -0.18200
C1179       C  0.57703927  0.23481596  0.38348760     0.10100
C1180       C  0.58949140  0.26870858  0.36832073    -0.07000
C1181       C  0.63261281  0.27433940  0.36280343    -0.18300
C1182       C  0.66379330  0.24725986  0.37254720     0.10100
S1183       S  0.52149689  0.22570292  0.39036114    -0.33200
S1184       S  0.71848700  0.26119571  0.36688994    -0.33200
H1185       H  0.73159795  0.25413716  0.39116064     0.28100
H1186       H  0.52772916  0.19215709  0.40699872     0.28100
H1187       H  0.59792288  0.17993372  0.40341152     0.18700
H1188       H  0.64218610  0.30104268  0.35158616     0.18700
C1189       C  0.90736639  0.27808298  0.37129233    -0.07100
C1190       C  0.88598172  0.25217801  0.35450981    -0.18200
C1191       C  0.85509495  0.22313061  0.36203043     0.10100
C1192       C  0.84648557  0.21803095  0.38730936    -0.07000
C1193       C  0.86647574  0.24574222  0.40392502    -0.18300
C1194       C  0.89673481  0.27538102  0.39627756     0.10100
S1195       S  0.82824554  0.19424111  0.33816967    -0.33200
S1196       S  0.92256701  0.30652614  0.41958420    -0.33200
H1197       H  0.96369075  0.30194371  0.40980818     0.28100
H1198       H  0.78738611  0.20242471  0.34754945     0.28100
H1199       H  0.89313690  0.25491920  0.33520749     0.18700
H1200       H  0.85992057  0.24325843  0.42328741     0.18700
C1201       C  0.84987617  0.03292803  0.38456435    -0.07100
C1202       C  0.88330984  0.04802804  0.37005543    -0.18200
C1203       C  0.91431007  0.02044095  0.36080400     0.10100
C1204       C  0.91230399  0.47670261  0.36632579    -0.07000
C1205       C  0.87846360  0.46138213  0.38048905    -0.18300
C1206       C  0.84689918  0.48889787  0.38944771     0.10100
S1207       S  0.95629056  0.04311424  0.34264107    -0.33200
S1208       S  0.80426360  0.46543679  0.40693732    -0.33200
H1209       H  0.78785909  0.00261678  0.41760301     0.28100
H1210       H  0.98895927  0.51807483  0.35319491     0.28100
H1211       H  0.88552202  0.08172679  0.36611935     0.18700
H1212       H  0.87653104  0.42769625  0.38449016     0.18700
C1213       C  0.65267958  0.02677305  0.39273067    -0.07100
C1214       C  0.64430569  0.02579486  0.36750445    -0.18200
C1215       C  0.61748834  0.49558684  0.35725821     0.10100
C1216       C  0.59669979  0.46579511  0.37231680    -0.07000
C1217       C  0.60630239  0.96514802  0.39731913    -0.18300
C1218       C  0.63364940  0.99533348  0.40775482     0.10100
S1219       S  0.61250031  0.49587004  0.32453467    -0.33200
S1220       S  0.64194916  0.99208663  0.44024361    -0.33200
H1221       H  0.62433101  0.03261582  0.44449413     0.28100
H1222       H  0.61793985  0.45158914  0.32311554     0.28100
H1223       H  0.65904031  0.04861058  0.35537603     0.18700
H1224       H  0.59041268  0.44251618  0.40918262     0.18700
C1225       C  0.74608257  0.46667933  0.52013190    -0.07100
C1226       C  0.73786522  0.00871711  0.52709197    -0.18200
C1227       C  0.74456972  0.04232361  0.51082089     0.10100
C1228       C  0.75870597  0.03376649  0.48678284    -0.07000
C1229       C  0.76721777  0.49174197  0.47991843    -0.18300
C1230       C  0.76059677  0.45819851  0.49617086     0.10100
S1231       S  0.73689711  0.09553160  0.52220871    -0.33200
S1232       S  0.76900795  0.40508864  0.48479770    -0.33200
H1233       H  0.73451549  0.38776599  0.49763665     0.28100
H1234       H  0.77033987  0.11286432  0.50848073     0.28100
H1235       H  0.72791102  0.01555216  0.54561578     0.18700
H1236       H  0.77711563  0.48480032  0.46143969     0.18700
C1237       C  0.75237355  0.28116423  0.52020288    -0.07100
C1238       C  0.72717571  0.28688158  0.49917239    -0.18200
C1239       C  0.72581617  0.25628052  0.48064804     0.10100
C1240       C  0.75020169  0.21868767  0.48322776    -0.07000
C1241       C  0.77560114  0.21319222  0.50416393    -0.18300
C1242       C  0.77619093  0.24328206  0.52283200     0.10100
S1243       S  0.69471277  0.26710876  0.45344728    -0.33200
S1244       S  0.80598829  0.22990746  0.54998570    -0.33200
H1245       H  0.77408178  0.24370198  0.56619936     0.28100
H1246       H  0.67611117  0.30542366  0.46135800     0.28100
H1247       H  0.70883739  0.31580062  0.49704846     0.18700
H1248       H  0.79427868  0.18450509  0.50646679     0.18700
C1249       C  0.64888659  0.27754636  0.61345599    -0.07100
C1250       C  0.61343437  0.26634756  0.59937149    -0.18200
C1251       C  0.58200026  0.23943481  0.60855371     0.10100
C1252       C  0.58624323  0.22218979  0.63245042    -0.07000
C1253       C  0.62266330  0.23217558  0.64611979    -0.18300
C1254       C  0.65407683  0.25897783  0.63683282     0.10100
S1255       S  0.53646566  0.23096023  0.58909110    -0.33200
S1256       S  0.70094173  0.26648933  0.65527669    -0.33200
H1257       H  0.72856128  0.26165721  0.63533851     0.28100
H1258       H  0.50690287  0.24005772  0.60755463     0.28100
H1259       H  0.60893965  0.28046584  0.58148050     0.18700
H1260       H  0.62722588  0.21834442  0.66407754     0.18700
C1261       C  0.90494978  0.21929826  0.63331188    -0.07100
C1262       C  0.91859596  0.26083735  0.62862981    -0.18200
C1263       C  0.89030705  0.29255824  0.62153937     0.10100
C1264       C  0.84663737  0.28291627  0.61866289    -0.07000
C1265       C  0.83263151  0.24132355  0.62348875    -0.18300
C1266       C  0.86128522  0.20947599  0.63099686     0.10100
S1267       S  0.91216526  0.34508220  0.61764430    -0.33200
S1268       S  0.84008870  0.15786630  0.63836011    -0.33200
H1269       H  0.86779379  0.15001779  0.65808201     0.28100
H1270       H  0.87800771  0.36531054  0.62937613     0.28100
H1271       H  0.95183137  0.26910545  0.63107805     0.18700
H1272       H  0.79921855  0.23353475  0.62133061     0.18700
C1273       C  0.90490402  0.02095604  0.63934748    -0.07100
C1274       C  0.88459947  0.03105774  0.61716370    -0.18200
C1275       C  0.85421913  0.00407623  0.60680412     0.10100
C1276       C  0.84431800  0.46535059  0.61855090    -0.07000
C1277       C  0.86338973  0.45625948  0.64126466    -0.18300
C1278       C  0.89409183  0.48292167  0.65143959     0.10100
S1279       S  0.82834391  0.02175166  0.57915682    -0.33200
S1280       S  0.92065926  0.46461386  0.67871702    -0.33200
H1281       H  0.96165248  0.47599918  0.67078413     0.28100
H1282       H  0.78774980  0.00712421  0.58594526     0.28100
H1283       H  0.89222266  0.06050282  0.60788427     0.18700
H1284       H  0.85592488  0.42702066  0.65075152     0.18700
C1285       C  0.58758962  0.02298158  0.63431075    -0.07100
C1286       C  0.57482080  0.48067917  0.63109237    -0.18200
C1287       C  0.60355190  0.44940847  0.62349716     0.10100
C1288       C  0.64630521  0.46065199  0.61897636    -0.07000
C1289       C  0.65937811  0.00284234  0.62248667    -0.18300
C1290       C  0.63050327  0.03411212  0.63021536     0.10100
S1291       S  0.58559781  0.39495241  0.62077600    -0.33200
S1292       S  0.65061621  0.08696274  0.63539159    -0.33200
H1293       H  0.62516650  0.09534869  0.65595279     0.28100
H1294       H  0.54243296  0.40248412  0.62610250     0.28100
H1295       H  0.54201199  0.47215608  0.63459541     0.18700
H1296       H  0.69220080  0.01149089  0.61908148     0.18700
C1297       C  0.65748431  0.12617564  0.76794867    -0.07100
C1298       C  0.63778539  0.16393722  0.76013521    -0.18200
C1299       C  0.60757296  0.16419661  0.74136629     0.10100
C1300       C  0.59517388  0.12542895  0.73021859    -0.07000
C1301       C  0.61549709  0.08776480  0.73763139    -0.18300
C1302       C  0.64596649  0.08752175  0.75631876     0.10100
S1303       S  0.58788071  0.21559315  0.73200337    -0.33200
S1304       S  0.66727165  0.03628620  0.76475230    -0.33200
H1305       H  0.66228468  0.04298180  0.78990900     0.28100
H1306       H  0.59344045  0.20716753  0.70701703     0.28100
H1307       H  0.64689092  0.19400683  0.76821990     0.18700
H1308       H  0.60653671  0.05775460  0.72938741     0.18700
C1309       C  0.84410887  0.13130697  0.77018653    -0.07100
C1310       C  0.86211076  0.09250428  0.76288176    -0.18200
C1311       C  0.89278989  0.09038782  0.74454029     0.10100
C1312       C  0.90656913  0.12813397  0.73284727    -0.07000
C1313       C  0.88864129  0.16706750  0.74015329    -0.18300
C1314       C  0.85838401  0.16920290  0.75886304     0.10100
S1315       S  0.91115984  0.03801587  0.73637460    -0.33200
S1316       S  0.84137806  0.22147342  0.76818037    -0.33200
H1317       H  0.84578341  0.21257809  0.79322073     0.28100
H1318       H  0.90330346  0.04457327  0.71140431     0.28100
H1319       H  0.85123254  0.06307033  0.77099263     0.18700
H1320       H  0.89933556  0.19639760  0.73181894     0.18700
C1321       C  0.00232478  0.03606182  0.01813407    -0.07100
C1322       C  0.96381085  0.51459612  0.01434662    -0.18200
C1323       C  0.96106491  0.48105138  0.99776146     0.10100
C1324       C  0.99737427  0.46944896  0.98404934    -0.07000
C1325       C  0.53574383  0.99125457  0.98769029    -0.18300
C1326       C  0.53846143  0.02472974  0.00428528     0.10100
S1327       S  0.91123955  0.45284993  0.99621992    -0.33200
S1328       S  0.58815312  0.05311640  0.00586857    -0.33200
H1329       H  0.56930030  0.09345098  0.00871550     0.28100
H1330       H  0.92988870  0.41239485  0.99355936     0.28100
H1331       H  0.93603972  0.52295751  0.02507417     0.18700
H1332       H  0.56353644  0.98303034  0.97694531     0.18700
C1333       C  0.00216883  0.28601558  0.98420246    -0.07100
C1334       C  0.96358018  0.26596580  0.98988664    -0.18200
C1335       C  0.96169976  0.23293698  0.00698852     0.10100
C1336       C  0.99912017  0.21985988  0.01936754    -0.07000
C1337       C  0.53774691  0.24004342  0.01376463    -0.18300
C1338       C  0.53958248  0.27328315  0.99675345     0.10100
S1339       S  0.91097883  0.20727681  0.01099558    -0.33200
S1340       S  0.59004180  0.29972416  0.99319594    -0.33200
H1341       H  0.57240322  0.34081940  0.99160612     0.28100
H1342       H  0.92806863  0.16587445  0.01170725     0.28100
H1343       H  0.93473977  0.27515570  0.98032694     0.18700
H1344       H  0.56657408  0.23079271  0.02332583     0.18700
C1345       C  0.64807798  0.22149196  0.86576419    -0.07100
C1346       C  0.63863596  0.22313809  0.89074904    -0.18200
C1347       C  0.60930813  0.25268603  0.89987307     0.10100
C1348       C  0.58958374  0.28213596  0.88391508    -0.07000
C1349       C  0.59689445  0.27871735  0.85878244    -0.18300
C1350       C  0.62531537  0.24839989  0.84955873     0.10100
S1351       S  0.59724085  0.25043070  0.93189535    -0.33200
S1352       S  0.63015166  0.24461721  0.81692105    -0.33200
H1353       H  0.62783725  0.19998847  0.81719812     0.28100
H1354       H  0.55319347  0.25527682  0.92804187     0.28100
H1355       H  0.65493353  0.20205036  0.90333798     0.18700
H1356       H  0.58101646  0.30031255  0.84628927     0.18700
C1357       C  0.89331959  0.29570519  0.88487417    -0.07100
C1358       C  0.88453214  0.25808523  0.89765206    -0.18200
C1359       C  0.85642980  0.22777291  0.88832229     0.10100
C1360       C  0.83602709  0.23480460  0.86558402    -0.07000
C1361       C  0.84500946  0.27221996  0.85268093    -0.18300
C1362       C  0.87242220  0.30304379  0.86224127     0.10100
S1363       S  0.84984071  0.17973712  0.90573350    -0.33200
S1364       S  0.87654613  0.35214752  0.84539813    -0.33200
H1365       H  0.87225901  0.37811713  0.86617913     0.28100
H1366       H  0.85963194  0.15387729  0.88559523     0.28100
H1367       H  0.90038164  0.25169886  0.91488127     0.18700
H1368       H  0.82893637  0.27849999  0.83550908     0.18700
C1369       C  0.84773782  0.03989723  0.86879405    -0.07100
C1370       C  0.85131271  0.03285239  0.89399082    -0.18200
C1371       C  0.87951092  0.50202562  0.90331414     0.10100
C1372       C  0.90532800  0.47825538  0.88710231    -0.07000
C1373       C  0.90315080  0.48686826  0.86204238    -0.18300
C1374       C  0.87480217  0.01722461  0.85279318     0.10100
S1375       S  0.88234717  0.49356951  0.93588029    -0.33200
S1376       S  0.87505185  0.02611185  0.82038005    -0.33200
H1377       H  0.87389432  0.07058155  0.82292336     0.28100
H1378       H  0.85349277  0.52576158  0.94262572     0.28100
H1379       H  0.83054740  0.05018211  0.90625158     0.18700
H1380       H  0.92297790  0.46905865  0.84947406     0.18700
C1381       C  0.66229408  0.02672705  0.86660135    -0.07100
C1382       C  0.67298509  0.00459039  0.88810545    -0.18200
C1383       C  0.64460247  0.97621125  0.89908376     0.10100
C1384       C  0.60452839  0.46861100  0.88814302    -0.07000
C1385       C  0.59372633  0.49089436  0.86671790    -0.18300
C1386       C  0.62154651  0.52046044  0.85620719     0.10100
S1387       S  0.66256734  0.94848609  0.92597728    -0.33200
S1388       S  0.60212199  0.55062694  0.83048205    -0.33200
H1389       H  0.62133831  0.58905885  0.83754282     0.28100
H1390       H  0.63137586  0.96728524  0.94093423     0.28100
H1391       H  0.70403832  0.00908412  0.89637508     0.18700
H1392       H  0.56282772  0.48592802  0.85836246     0.18700
O1393       O  0.96980628  0.93822341  0.88643567    -0.86300
O1394       O  0.55417860  0.91353333  0.88254753    -0.83400
C1395       C  0.57435958  0.93627487  0.89758860     0.97100
O1396       O  0.56908254  0.93110556  0.92016995    -0.83400
O1397       O  0.52844091  0.91181207  0.96301316    -0.86000
C1398       C  0.99646183  0.93594914  0.96537171     1.01700
O1399       O  0.96424656  0.93194040  0.95191882    -0.78800
O1400       O  0.91879270  0.91616995  0.91055726    -0.79000
C1401       C  0.93313209  0.94299095  0.89547872     1.01600
O1402       O  0.94408262  0.85139528  0.88157983    -0.86300
O1403       O  0.52821598  0.82642346  0.88320042    -0.83400
C1404       C  0.56368762  0.81805484  0.89300305     0.97200
O1405       O  0.57849543  0.84127127  0.90986368    -0.83400
O1406       O  0.53368104  0.82351282  0.95116342    -0.80400
C1407       C  0.00205920  0.81925873  0.96497365     1.01600
O1408       O  0.96997585  0.84327888  0.96259084    -0.78800
O1409       O  0.93144308  0.82647601  0.91810733    -0.79000
C1410       C  0.92466867  0.82583779  0.89539805     1.01600
Cr1411     Cr  0.99913938  0.88220746  0.88609167     1.93700
Cr1412     Cr  0.54842413  0.87720726  0.93466720     1.93200
Cr1413     Cr  0.95020201  0.87927723  0.93448040     1.39100
O1414       O  0.99938196  0.87946728  0.91848648    -1.24100
O1415       O  0.80513573  0.60289345  0.86866279    -0.86300
O1416       O  0.77860037  0.68669232  0.87028060    -0.83400
C1417       C  0.80337838  0.70544557  0.85572642     0.97100
O1418       O  0.79906648  0.70079176  0.83296519    -0.83400
O1419       O  0.78235110  0.65983599  0.78953911    -0.86000
C1420       C  0.80953377  0.63022914  0.78861729     1.01700
O1421       O  0.80605562  0.59838466  0.80247010    -0.78800
O1422       O  0.78806788  0.55176753  0.84333499    -0.79000
C1423       C  0.81239108  0.56673544  0.85955589     1.01600
O1424       O  0.71864532  0.57573811  0.87061123    -0.86300
O1425       O  0.69164375  0.65919808  0.86736951    -0.83400
C1426       C  0.68423222  0.69477914  0.85748776     0.97200
O1427       O  0.70911991  0.70936156  0.84146482    -0.83400
O1428       O  0.69320591  0.66143577  0.80063719    -0.86000
C1429       C  0.69091682  0.62897550  0.78718359     1.01600
O1430       O  0.71822382  0.59974615  0.78933429    -0.78800
O1431       O  0.69846728  0.56068224  0.83332414    -0.79000
C1432       C  0.69426054  0.55623123  0.85612548     1.01600
Cr1433     Cr  0.74851738  0.63118144  0.86659712     1.93700
Cr1434     Cr  0.74618978  0.67900173  0.81752089     1.93200
Cr1435     Cr  0.75230267  0.58156886  0.81839383     1.39100
O1436       O  0.74902896  0.63061716  0.83417417    -1.24100
O1437       O  0.79869000  0.90614495  0.62165978    -0.86300
O1438       O  0.71359914  0.92581082  0.61873759    -0.83400
C1439       C  0.67686051  0.92912319  0.60959022     0.97100
O1440       O  0.66511975  0.90472046  0.59261347    -0.83400
O1441       O  0.71238787  0.92892173  0.55249994    -0.86000
C1442       C  0.74433602  0.93300287  0.53875183     1.01700
O1443       O  0.77556240  0.90790389  0.54051574    -0.78800
O1444       O  0.81216493  0.92939334  0.58477484    -0.79000
C1445       C  0.81628963  0.93268434  0.60763983     1.01600
O1446       O  0.77891053  0.81748632  0.61783416    -0.86300
O1447       O  0.69349817  0.83699233  0.61960223    -0.83400
C1448       C  0.67702290  0.81173869  0.60442329     0.97200
O1449       O  0.68206419  0.81746636  0.58178882    -0.83400
O1450       O  0.72202552  0.84113111  0.53943074    -0.86000
C1451       C  0.75304294  0.81552417  0.53859423     1.01600
O1452       O  0.78454548  0.82036412  0.55259413    -0.78800
O1453       O  0.82889961  0.84160222  0.59385127    -0.79000
C1454       C  0.81628943  0.81524367  0.60958383     1.01600
Cr1455     Cr  0.74623256  0.87172418  0.61696052     1.93700
Cr1456     Cr  0.69906718  0.87317334  0.56787233     1.93200
Cr1457     Cr  0.79646072  0.87478524  0.56913005     1.39100
O1458       O  0.74720413  0.87328760  0.58467677    -1.24100
O1459       O  0.52869149  0.67379921  0.62967274    -0.86300
O1460       O  0.55087836  0.58948777  0.63343164    -0.83400
C1461       C  0.55533040  0.55331353  0.64309543     0.97100
O1462       O  0.53056826  0.54121048  0.65980322    -0.83400
O1463       O  0.55495203  0.59005600  0.69913312    -0.86000
C1464       C  0.55972351  0.62278674  0.71220460     1.01700
O1465       O  0.53275104  0.65251846  0.71099763    -0.78800
O1466       O  0.55205195  0.68888254  0.66630136    -0.79000
C1467       C  0.55426910  0.69333471  0.64339768     1.01600
O1468       O  0.94045403  0.65185387  0.63398413    -0.86300
O1469       O  0.96257340  0.56701209  0.63291494    -0.83400
C1470       C  0.93836632  0.54978527  0.64836496     0.97200
O1471       O  0.94344143  0.55648325  0.67091166    -0.83400
O1472       O  0.96722199  0.59822498  0.71320348    -0.86000
C1473       C  0.94052174  0.62829425  0.71397387     1.01600
O1474       O  0.94399432  0.65926199  0.69944632    -0.78800
O1475       O  0.96405304  0.70286871  0.65758063    -0.79000
C1476       C  0.93738823  0.68916932  0.64227417     1.01600
Cr1477     Cr  0.49578472  0.62066208  0.63499746     1.93700
Cr1478     Cr  0.49894119  0.57510170  0.68450324     1.93200
Cr1479     Cr  0.49820089  0.67207288  0.68247406     1.39100
O1480       O  0.49762438  0.62258955  0.66727771    -1.24100
O1481       O  0.78260118  0.56692150  0.38693585    -0.86300
O1482       O  0.69728901  0.58649553  0.38655700    -0.83400
C1483       C  0.68113381  0.56107591  0.40189944     0.97100
O1484       O  0.68809968  0.56628276  0.42434810    -0.83400
O1485       O  0.72827502  0.59228512  0.46649737    -0.86000
C1486       C  0.75940540  0.56689219  0.46781287     1.01700
O1487       O  0.79002484  0.56971182  0.45298519    -0.78800
O1488       O  0.83378400  0.59043630  0.41062077    -0.79000
C1489       C  0.82022802  0.56445250  0.39481189     1.01600
O1490       O  0.80329135  0.65568006  0.38329811    -0.86300
O1491       O  0.71829877  0.67524744  0.38688068    -0.83400
C1492       C  0.68179744  0.67913794  0.39608623     0.97200
O1493       O  0.66977797  0.65333658  0.41237447    -0.83400
O1494       O  0.71758964  0.67853494  0.45158741    -0.86000
C1495       C  0.74964947  0.68405548  0.46503561     1.01600
O1496       O  0.78076643  0.65846504  0.46404371    -0.78800
O1497       O  0.81615495  0.67878317  0.42010743    -0.79000
C1498       C  0.81995622  0.68287459  0.39731253     1.01600
Cr1499     Cr  0.75046602  0.62113115  0.38830507     1.93700
Cr1500     Cr  0.70450409  0.62252551  0.43742349     1.93200
Cr1501     Cr  0.80168538  0.62407205  0.43579306     1.39100
O1502       O  0.75227826  0.62234507  0.42050112    -1.24100
O1503       O  0.96803019  0.92711657  0.37292710    -0.86300
O1504       O  0.94534176  0.84329245  0.37036287    -0.83400
C1505       C  0.94115221  0.80624658  0.36207005     0.97100
O1506       O  0.96646965  0.79224556  0.34601481    -0.83400
O1507       O  0.94630739  0.83875870  0.30523751    -0.86000
C1508       C  0.94274301  0.87032103  0.29116487     1.01700
O1509       O  0.96973972  0.90009799  0.29218373    -0.78800
O1510       O  0.95026591  0.94154883  0.33498539    -0.79000
C1511       C  0.94488181  0.94655808  0.35758752     1.01600
O1512       O  0.55640456  0.90183521  0.37197234    -0.86300
O1513       O  0.53306908  0.81767531  0.37339256    -0.83400
C1514       C  0.55807477  0.79911099  0.35873149     0.97200
O1515       O  0.55521404  0.80520149  0.33604200    -0.83400
O1516       O  0.53480150  0.84373551  0.29220855    -0.86000
C1517       C  0.56222520  0.87297242  0.29123909     1.01600
O1518       O  0.55882465  0.90431503  0.30540948    -0.78800
O1519       O  0.53872959  0.95161165  0.34580998    -0.79000
C1520       C  0.56274184  0.93788778  0.36263969     1.01600
Cr1521     Cr  0.50084886  0.87250275  0.36963474     1.93700
Cr1522     Cr  0.50084270  0.82372273  0.32111085     1.93200
Cr1523     Cr  0.50425289  0.92066672  0.32081273     1.39100
O1524       O  0.50188403  0.87241108  0.33725717    -1.24100
O1525       O  0.94750879  0.59471490  0.12030764    -0.86300
O1526       O  0.53192813  0.57072290  0.11848308    -0.83400
C1527       C  0.56776798  0.56357978  0.10890733     0.97100
O1528       O  0.58181813  0.58713206  0.09196443    -0.83400
O1529       O  0.53563851  0.57187540  0.05086115    -0.86000
C1530       C  0.00380487  0.56904753  0.03706645     1.01700
O1531       O  0.97285686  0.59433763  0.03924984    -0.78800
O1532       O  0.93593844  0.57243544  0.08314969    -0.79000
C1533       C  0.92950410  0.56903757  0.10579544     1.01600
O1534       O  0.97315721  0.68278911  0.11748961    -0.86300
O1535       O  0.55792283  0.65705667  0.12052921    -0.83400
C1536       C  0.57839284  0.68029709  0.10590851     0.97200
O1537       O  0.57238741  0.67749679  0.08323441    -0.83400
O1538       O  0.53085656  0.66128775  0.04002903    -0.86000
C1539       C  0.99906131  0.68603428  0.03827763     1.01600
O1540       O  0.96745962  0.68174822  0.05224452    -0.78800
O1541       O  0.92209957  0.66075584  0.09337750    -0.79000
C1542       C  0.93566040  0.68625031  0.10937161     1.01600
Cr1543     Cr  0.00262124  0.62648671  0.11658715     1.93700
Cr1544     Cr  0.55132941  0.62465789  0.06783095     1.93200
Cr1545     Cr  0.95353553  0.62721327  0.06829049     1.39100
O1546       O  0.00271204  0.62614697  0.08419162    -1.24100
O1547       O  0.71807500  0.82240876  0.13299001    -0.86300
O1548       O  0.69642878  0.90698201  0.13668857    -0.83400
C1549       C  0.69062812  0.94274418  0.14660721     0.97100
O1550       O  0.71600059  0.95578345  0.16295539    -0.83400
O1551       O  0.69933263  0.90889798  0.20417931    -0.86000
C1552       C  0.69491819  0.87637927  0.21738275     1.01700
O1553       O  0.71844294  0.84417175  0.21435295    -0.78800
O1554       O  0.69752196  0.80726459  0.17023567    -0.79000
C1555       C  0.69358739  0.80300765  0.14744498     1.01600
O1556       O  0.80667548  0.84486256  0.13546778    -0.86300
O1557       O  0.78436019  0.92980977  0.13389062    -0.83400
C1558       C  0.81027970  0.94750519  0.14828931     0.97200
O1559       O  0.80627534  0.94205809  0.17097349    -0.83400
O1560       O  0.78838462  0.90095391  0.21418849    -0.86000
C1561       C  0.81212543  0.86849836  0.21587941     1.01600
O1562       O  0.80668800  0.83728643  0.20184650    -0.78800
O1563       O  0.78569318  0.79423831  0.16007991    -0.79000
C1564       C  0.81131219  0.80795096  0.14416801     1.01600
Cr1565     Cr  0.75143682  0.87592620  0.13744479     1.93700
Cr1566     Cr  0.75250104  0.92299822  0.18664350     1.93200
Cr1567     Cr  0.75202025  0.82496143  0.18536329     1.39100
O1568       O  0.75180528  0.87466359  0.16988635    -1.24100
C1569       C  0.60971353  0.71066496  0.11575669    -0.07100
C1570       C  0.60950071  0.75254886  0.10699245    -0.18200
C1571       C  0.63519746  0.78368543  0.11769918     0.10100
C1572       C  0.66240744  0.77276343  0.13732826    -0.07000
C1573       C  0.66317310  0.73070059  0.14579382    -0.18300
C1574       C  0.63777826  0.69946890  0.13497027     0.10100
S1575       S  0.63015862  0.83730255  0.10650314    -0.33200
S1576       S  0.64453927  0.64548352  0.14547224    -0.33200
H1577       H  0.63934512  0.62701208  0.12228964     0.28100
H1578       H  0.63198991  0.85568636  0.12987725     0.28100
H1579       H  0.58793152  0.76147320  0.09237270     0.18700
H1580       H  0.68503759  0.72172567  0.16026158     0.18700
C1581       C  0.84493804  0.77854730  0.13523181    -0.07100
C1582       C  0.83571548  0.73486521  0.13564460    -0.18200
C1583       C  0.86537099  0.70450983  0.12798581     0.10100
C1584       C  0.90554424  0.71774096  0.11948364    -0.07000
C1585       C  0.91536674  0.76126580  0.11921839    -0.18300
C1586       C  0.88559688  0.79180216  0.12712072     0.10100
S1587       S  0.85203465  0.64866013  0.13000753    -0.33200
S1588       S  0.90189366  0.84668028  0.12711787    -0.33200
H1589       H  0.88340321  0.85622971  0.14985566     0.28100
H1590       H  0.80970981  0.65385180  0.13781435     0.28100
H1591       H  0.80487361  0.72436739  0.14195889     0.18700
H1592       H  0.94618464  0.77150598  0.11265751     0.18700
C1593       C  0.90014815  0.53604539  0.11589169    -0.07100
C1594       C  0.90150625  0.02758346  0.14116877    -0.18200
C1595       C  0.87458694  0.99766027  0.15215802     0.10100
C1596       C  0.84376481  0.97612059  0.13788835    -0.07000
C1597       C  0.84350608  0.48351358  0.11247968    -0.18300
C1598       C  0.87084963  0.51286935  0.10143798     0.10100
S1599       S  0.88234228  0.98817387  0.18431124    -0.33200
S1600       S  0.86506842  0.51993166  0.06894641    -0.33200
H1601       H  0.85903212  0.56417734  0.07075188     0.28100
H1602       H  0.88407193  0.94367586  0.18167385     0.28100
H1603       H  0.92430025  0.04401108  0.15259362     0.18700
H1604       H  0.82087665  0.46709138  0.10094624     0.18700
C1605       C  0.59508304  0.52905964  0.11861813    -0.07100
C1606       C  0.60430609  0.52849932  0.14366631    -0.18200
C1607       C  0.63380943  0.49961558  0.15347141     0.10100
C1608       C  0.65545746  0.97078013  0.13791698    -0.07000
C1609       C  0.64447505  0.97003135  0.11302940    -0.18300
C1610       C  0.61442774  0.99847462  0.10333569     0.10100
S1611       S  0.64130269  0.50024916  0.18604738    -0.33200
S1612       S  0.60134703  0.99369249  0.07143726    -0.33200
H1613       H  0.55796205  0.50244395  0.07472833     0.28100
H1614       H  0.63907049  0.95584077  0.18803135     0.28100
H1615       H  0.58900888  0.55129694  0.15563526     0.18700
H1616       H  0.65995208  0.94762853  0.10089682     0.18700
C1617       C  0.66227423  0.87560537  0.23684104    -0.07100
C1618       C  0.63877263  0.83827929  0.24042817    -0.18200
C1619       C  0.60704822  0.83573204  0.25832802     0.10100
C1620       C  0.59724231  0.87193887  0.27278934    -0.07000
C1621       C  0.62143006  0.90905316  0.26924080    -0.18300
C1622       C  0.65418972  0.91093620  0.25201296     0.10100
S1623       S  0.58128705  0.78501004  0.26179541    -0.33200
S1624       S  0.68584671  0.95861772  0.25120760    -0.33200
H1625       H  0.72471531  0.93738770  0.24720282     0.28100
H1626       H  0.58768635  0.78366906  0.28722734     0.28100
H1627       H  0.64525685  0.81066127  0.22916536     0.18700
H1628       H  0.61507618  0.93710965  0.28006036     0.18700
C1629       C  0.84605345  0.86774175  0.23482334    -0.07100
C1630       C  0.86346049  0.90666294  0.24238497    -0.18200
C1631       C  0.89382686  0.90878320  0.26106117     0.10100
C1632       C  0.90837115  0.87093912  0.27243159    -0.07000
C1633       C  0.89038370  0.83206151  0.26515473    -0.18300
C1634       C  0.85977685  0.83001554  0.24658010     0.10100
S1635       S  0.91072679  0.96106946  0.27022121    -0.33200
S1636       S  0.83795891  0.77855649  0.23972776    -0.33200
H1637       H  0.85583183  0.77777430  0.21618721     0.28100
H1638       H  0.90520752  0.95272113  0.29522850     0.28100
H1639       H  0.85284505  0.93597528  0.23390617     0.18700
H1640       H  0.90063852  0.80271623  0.27375273     0.18700
C1641       C  0.65142950  0.71194761  0.38705715    -0.07100
C1642       C  0.60795443  0.70663635  0.39245389    -0.18200
C1643       C  0.57703834  0.73474116  0.38348211     0.10100
C1644       C  0.58951380  0.76867165  0.36834927    -0.07000
C1645       C  0.63264947  0.77435175  0.36288592    -0.18300
C1646       C  0.66381798  0.74727755  0.37264731     0.10100
S1647       S  0.52148237  0.72558511  0.39029822    -0.33200
S1648       S  0.71852376  0.76127586  0.36707512    -0.33200
H1649       H  0.73155849  0.75411371  0.39134944     0.28100
H1650       H  0.52771068  0.69216771  0.40702166     0.28100
H1651       H  0.59789834  0.67982109  0.40338317     0.18700
H1652       H  0.64223965  0.80108956  0.35170098     0.18700
C1653       C  0.90737541  0.77808377  0.37132872    -0.07100
C1654       C  0.88601654  0.75215987  0.35454405    -0.18200
C1655       C  0.85512381  0.72311411  0.36205903     0.10100
C1656       C  0.84648938  0.71802580  0.38733488    -0.07000
C1657       C  0.86644671  0.74576036  0.40395174    -0.18300
C1658       C  0.89670287  0.77540720  0.39630908     0.10100
S1659       S  0.82828811  0.69421975  0.33819607    -0.33200
S1660       S  0.92247422  0.80660061  0.41961609    -0.33200
H1661       H  0.96362346  0.80197481  0.40988041     0.28100
H1662       H  0.78742330  0.70243972  0.34756048     0.28100
H1663       H  0.89319404  0.75488669  0.33524427     0.18700
H1664       H  0.85986414  0.74329316  0.42331133     0.18700
C1665       C  0.84988380  0.53293547  0.38456236    -0.07100
C1666       C  0.88341937  0.54807136  0.37014335    -0.18200
C1667       C  0.91441963  0.52049027  0.36088829     0.10100
C1668       C  0.91230705  0.97668412  0.36634286    -0.07000
C1669       C  0.87857210  0.96140082  0.38060176    -0.18300
C1670       C  0.84699531  0.98891530  0.38954838     0.10100
S1671       S  0.95654745  0.54320375  0.34285551    -0.33200
S1672       S  0.80447947  0.96546777  0.40714271    -0.33200
H1673       H  0.78804366  0.50252902  0.41766774     0.28100
H1674       H  0.98880669  0.01808740  0.35295388     0.28100
H1675       H  0.88571172  0.58178925  0.36628306     0.18700
H1676       H  0.87671937  0.92773605  0.38467812     0.18700
C1677       C  0.65264467  0.52677156  0.39280121    -0.07100
C1678       C  0.64453392  0.52558479  0.36754882    -0.18200
C1679       C  0.61726563  0.99579253  0.35721587     0.10100
C1680       C  0.59672713  0.96579561  0.37225791    -0.07000
C1681       C  0.60600168  0.46534882  0.39741206    -0.18300
C1682       C  0.63333117  0.49554494  0.40785416     0.10100
S1683       S  0.61197618  0.99634566  0.32450744    -0.33200
S1684       S  0.64118738  0.49262367  0.44038874    -0.33200
H1685       H  0.62384819  0.53334329  0.44441040     0.28100
H1686       H  0.61759520  0.95210319  0.32295603     0.28100
H1687       H  0.65948383  0.54822889  0.35540138     0.18700
H1688       H  0.59092839  0.94214944  0.40907592     0.18700
C1689       C  0.74610320  0.96668460  0.52011639    -0.07100
C1690       C  0.73804076  0.50873437  0.52713778    -0.18200
C1691       C  0.74479673  0.54232991  0.51086610     0.10100
C1692       C  0.75877645  0.53374084  0.48680281    -0.07000
C1693       C  0.76734321  0.99179181  0.47993039    -0.18300
C1694       C  0.76076612  0.95823624  0.49618023     0.10100
S1695       S  0.73739607  0.59555888  0.52227935    -0.33200
S1696       S  0.76942124  0.90514881  0.48482982    -0.33200
H1697       H  0.73493417  0.88770232  0.49761785     0.28100
H1698       H  0.77082671  0.61277212  0.50849097     0.28100
H1699       H  0.72820931  0.51558608  0.54567814     0.18700
H1700       H  0.77736909  0.98486738  0.46146597     0.18700
C1701       C  0.75247653  0.78119566  0.52020336    -0.07100
C1702       C  0.72728214  0.78690559  0.49917072    -0.18200
C1703       C  0.72593326  0.75629893  0.48064906     0.10100
C1704       C  0.75031739  0.71870650  0.48323678    -0.07000
C1705       C  0.77573450  0.71323016  0.50416761    -0.18300
C1706       C  0.77631870  0.74332819  0.52283157     0.10100
S1707       S  0.69482025  0.76710479  0.45344810    -0.33200
S1708       S  0.80613260  0.72997273  0.54998243    -0.33200
H1709       H  0.77420956  0.74372239  0.56619783     0.28100
H1710       H  0.67652031  0.80562757  0.46125533     0.28100
H1711       H  0.70892887  0.81581053  0.49704887     0.18700
H1712       H  0.79441651  0.68455261  0.50647252     0.18700
C1713       C  0.64889815  0.77755065  0.61344535    -0.07100
C1714       C  0.61345714  0.76633867  0.59935496    -0.18200
C1715       C  0.58202307  0.73942258  0.60853435     0.10100
C1716       C  0.58625394  0.72219005  0.63243473    -0.07000
C1717       C  0.62266458  0.73218702  0.64610958    -0.18300
C1718       C  0.65407908  0.75899018  0.63682498     0.10100
S1719       S  0.53650379  0.73092617  0.58906302    -0.33200
S1720       S  0.70093413  0.76651252  0.65527567    -0.33200
H1721       H  0.72856426  0.76167277  0.63534280     0.28100
H1722       H  0.50692546  0.74005364  0.60751471     0.28100
H1723       H  0.60897071  0.78044877  0.58146121     0.18700
H1724       H  0.62721905  0.71836433  0.66407019     0.18700
C1725       C  0.90495385  0.71929496  0.63329473    -0.07100
C1726       C  0.91860139  0.76083772  0.62862381    -0.18200
C1727       C  0.89031353  0.79256697  0.62154348     0.10100
C1728       C  0.84664261  0.78293085  0.61866520    -0.07000
C1729       C  0.83263654  0.74133184  0.62347462    -0.18300
C1730       C  0.86128991  0.70947465  0.63097133     0.10100
S1731       S  0.91217654  0.84509211  0.61766056    -0.33200
S1732       S  0.84009480  0.65785158  0.63830474    -0.33200
H1733       H  0.86778179  0.64998283  0.65803234     0.28100
H1734       H  0.87802450  0.86531932  0.62939946     0.28100
H1735       H  0.95183831  0.76910125  0.63107248     0.18700
H1736       H  0.79922440  0.73354519  0.62131107     0.18700
C1737       C  0.90493800  0.52092442  0.63932113    -0.07100
C1738       C  0.88463024  0.53102326  0.61713778    -0.18200
C1739       C  0.85424706  0.50404107  0.60678075     0.10100
C1740       C  0.84428828  0.96538556  0.61857360    -0.07000
C1741       C  0.86335349  0.95629339  0.64128871    -0.18300
C1742       C  0.89405278  0.98295501  0.65146602     0.10100
S1743       S  0.82835702  0.52172111  0.57913933    -0.33200
S1744       S  0.92061396  0.96464563  0.67874496    -0.33200
H1745       H  0.96161030  0.97602035  0.67081240     0.28100
H1746       H  0.78776661  0.50709522  0.58593600     0.28100
H1747       H  0.89224863  0.56046919  0.60785835     0.18700
H1748       H  0.85588971  0.92705179  0.65077318     0.18700
C1749       C  0.58761439  0.52299203  0.63430117    -0.07100
C1750       C  0.57480737  0.98066311  0.63110776    -0.18200
C1751       C  0.60354298  0.94940047  0.62350392     0.10100
C1752       C  0.64628850  0.96065683  0.61897001    -0.07000
C1753       C  0.65940612  0.50283277  0.62249802    -0.18300
C1754       C  0.63053485  0.53411066  0.63021967     0.10100
S1755       S  0.58560724  0.89493814  0.62078692    -0.33200
S1756       S  0.65065921  0.58695421  0.63540482    -0.33200
H1757       H  0.62518583  0.59535035  0.65595492     0.28100
H1758       H  0.54245244  0.90244776  0.62614965     0.28100
H1759       H  0.54200468  0.97213027  0.63461986     0.18700
H1760       H  0.69223477  0.51147153  0.61910164     0.18700
C1761       C  0.65749592  0.62619483  0.76793019    -0.07100
C1762       C  0.63777974  0.66395357  0.76012631    -0.18200
C1763       C  0.60756080  0.66421266  0.74136076     0.10100
C1764       C  0.59517669  0.62544682  0.73020498    -0.07000
C1765       C  0.61551631  0.58778627  0.73760914    -0.18300
C1766       C  0.64598817  0.58754344  0.75629480     0.10100
S1767       S  0.58783841  0.71560727  0.73201465    -0.33200
S1768       S  0.66730756  0.53631011  0.76472080    -0.33200
H1769       H  0.66230058  0.54298875  0.78987801     0.28100
H1770       H  0.59340047  0.70721039  0.70702507     0.28100
H1771       H  0.64687522  0.69402180  0.76821649     0.18700
H1772       H  0.60656666  0.55777714  0.72935986     0.18700
C1773       C  0.84413315  0.63130816  0.77017780    -0.07100
C1774       C  0.86212581  0.59250140  0.76287157    -0.18200
C1775       C  0.89280381  0.59037898  0.74452944     0.10100
C1776       C  0.90659046  0.62812280  0.73283725    -0.07000
C1777       C  0.88867795  0.66706092  0.74014795    -0.18300
C1778       C  0.85842175  0.66920197  0.75885802     0.10100
S1779       S  0.91116214  0.53800353  0.73636173    -0.33200
S1780       S  0.84143176  0.72147563  0.76817899    -0.33200
H1781       H  0.84582086  0.71257035  0.79321908     0.28100
H1782       H  0.90331812  0.54456507  0.71139035     0.28100
H1783       H  0.85123980  0.56306944  0.77098088     0.18700
H1784       H  0.89938109  0.69638917  0.73181570     0.18700
C1785       C  0.00230452  0.53608754  0.01812833    -0.07100
C1786       C  0.96383391  0.01456471  0.01435398    -0.18200
C1787       C  0.96108931  0.98102064  0.99776824     0.10100
C1788       C  0.99739789  0.96942119  0.98405468    -0.07000
C1789       C  0.53572229  0.49127827  0.98769251    -0.18300
C1790       C  0.53843931  0.52475087  0.00428853     0.10100
S1791       S  0.91126446  0.95281835  0.99622545    -0.33200
S1792       S  0.58813465  0.55313062  0.00587762    -0.33200
H1793       H  0.56928669  0.59346791  0.00872243     0.28100
H1794       H  0.92991352  0.91236452  0.99355878     0.28100
H1795       H  0.93606238  0.02292333  0.02508223     0.18700
H1796       H  0.56351691  0.48305328  0.97694956     0.18700
C1797       C  0.00214639  0.78601853  0.98420937    -0.07100
C1798       C  0.96355589  0.76597981  0.98990089    -0.18200
C1799       C  0.96167656  0.73295986  0.00700764     0.10100
C1800       C  0.99910037  0.71988229  0.01938276    -0.07000
C1801       C  0.53771608  0.74007559  0.01378336    -0.18300
C1802       C  0.53955160  0.77330766  0.99676864     0.10100
S1803       S  0.91095312  0.70730927  0.01102472    -0.33200
S1804       S  0.59000063  0.79977249  0.99322053    -0.33200
H1805       H  0.57234285  0.84085728  0.99161030     0.28100
H1806       H  0.92803580  0.66590365  0.01172941     0.28100
H1807       H  0.93471434  0.77516901  0.98034223     0.18700
H1808       H  0.56653947  0.73083807  0.02335244     0.18700
C1809       C  0.64807525  0.72148014  0.86574829    -0.07100
C1810       C  0.63864138  0.72312431  0.89073420    -0.18200
C1811       C  0.60930828  0.75266355  0.89986123     0.10100
C1812       C  0.58956979  0.78210682  0.88390491    -0.07000
C1813       C  0.59686877  0.77868581  0.85877091    -0.18300
C1814       C  0.62529619  0.74837646  0.84954453     0.10100
S1815       S  0.59725585  0.75040876  0.93188587    -0.33200
S1816       S  0.63012125  0.74458850  0.81690657    -0.33200
H1817       H  0.62782827  0.69995852  0.81718703     0.28100
H1818       H  0.55320579  0.75524494  0.92803852     0.28100
H1819       H  0.65495045  0.70204294  0.90332168     0.18700
H1820       H  0.58097937  0.80027483  0.84627901     0.18700
C1821       C  0.89330821  0.79571338  0.88487222    -0.07100
C1822       C  0.88453005  0.75808647  0.89764540    -0.18200
C1823       C  0.85643166  0.72777302  0.88831311     0.10100
C1824       C  0.83602538  0.73481005  0.86557656    -0.07000
C1825       C  0.84499784  0.77223310  0.85267839    -0.18300
C1826       C  0.87240463  0.80305889  0.86224213     0.10100
S1827       S  0.84985078  0.67973023  0.90571900    -0.33200
S1828       S  0.87651130  0.85217419  0.84540860    -0.33200
H1829       H  0.87223672  0.87813054  0.86619590     0.28100
H1830       H  0.85963245  0.65387755  0.88557620     0.28100
H1831       H  0.90038412  0.75169568  0.91487286     0.18700
H1832       H  0.82892039  0.77851756  0.83550824     0.18700
C1833       C  0.84772516  0.53988685  0.86878079    -0.07100
C1834       C  0.85128945  0.53283932  0.89397784    -0.18200
C1835       C  0.87953777  0.00203925  0.90332411     0.10100
C1836       C  0.90534887  0.97826825  0.88710954    -0.07000
C1837       C  0.90316328  0.98688012  0.86204990    -0.18300
C1838       C  0.87479448  0.51721458  0.85278279     0.10100
S1839       S  0.88238460  0.99358243  0.93588995    -0.33200
S1840       S  0.87505909  0.52610721  0.82037014    -0.33200
H1841       H  0.87389827  0.57057657  0.82291508     0.28100
H1842       H  0.85352118  0.02576457  0.94263824     0.28100
H1843       H  0.83052000  0.55016890  0.90623636     0.18700
H1844       H  0.92298512  0.96906893  0.84947953     0.18700
C1845       C  0.66228067  0.52674080  0.86657443    -0.07100
C1846       C  0.67297209  0.50460069  0.88807720    -0.18200
C1847       C  0.64458538  0.47623011  0.89905893     0.10100
C1848       C  0.60455280  0.96857955  0.88816122    -0.07000
C1849       C  0.59375192  0.99086153  0.86673613    -0.18300
C1850       C  0.62156513  0.02043665  0.85623023     0.10100
S1851       S  0.66255580  0.44849435  0.92594744    -0.33200
S1852       S  0.60213497  0.05060447  0.83050730    -0.33200
H1853       H  0.62133865  0.08903995  0.83757302     0.28100
H1854       H  0.63138036  0.46730336  0.94091126     0.28100
H1855       H  0.70402904  0.50908439  0.89634308     0.18700
H1856       H  0.56285664  0.98588851  0.85837705     0.18700
loop_ 
_geom_bond_atom_site_label_1 
_geom_bond_atom_site_label_2 
_geom_bond_distance 
_geom_bond_site_symmetry_2 
_ccdc_geom_bond_type 
O1          Cr19   1.986       .  S
O1            C9   1.263       .  A
O2         Cr947   2.003   1_455  S
O2            C3   1.263       .  A
C3            O4   1.259       .  A
C3          C456   1.486       .  S
O4          Cr20   1.984       .  S
O5          Cr20   1.998       .  S
O5          C934   1.265   1_455  A
C6            O7   1.257       .  A
C6          O933   1.265       .  A
C6          C396   1.469       .  S
O7          Cr21   1.964       .  S
O8          Cr21   2.005       .  S
O8            C9   1.265       .  A
C9          C444   1.481       .  S
O10         Cr19   2.000       .  S
O10          C18   1.263       .  A
O11        Cr947   1.982   1_455  S
O11          C12   1.263       .  A
C12          O13   1.267       .  A
C12         C420   1.478       .  S
O13         Cr20   2.004       .  S
O14         Cr20   1.972       .  S
O14         C943   1.257       .  A
C15          O16   1.264       .  A
C15         O942   1.257       .  A
C15         C405   1.484       .  S
O16         Cr21   2.007       .  S
O17         Cr21   1.979       .  S
O17          C18   1.262       .  A
C18         C429   1.485       .  S
Cr19        O930   2.003       .  S
Cr19        O939   1.981       .  S
Cr19         O22   1.776       .  S
Cr20        O950   1.777   1_455  S
Cr21         O22   1.777       .  S
O22        Cr948   1.777       .  S
O23         Cr41   1.989       .  S
O23          C31   1.263       .  A
O24         Cr41   1.999       .  S
O24          C25   1.263       .  A
C25          O26   1.262       .  A
C25         C432   1.484       .  S
O26         Cr42   1.987       .  S
O27         Cr42   2.001       .  S
O27          C28   1.262       .  A
C28          O29   1.261       .  A
C28         C381   1.486       .  S
O29         Cr43   1.976       .  S
O30         Cr43   1.998       .  S
O30          C31   1.263       .  A
C31         C441   1.480       .  S
O32         Cr41   1.996       .  S
O32          C40   1.263       .  A
O33         Cr41   1.990       .  S
O33          C34   1.264       .  A
C34          O35   1.264       .  A
C34         C417   1.482       .  S
O35         Cr42   1.997       .  S
O36         Cr42   1.983       .  S
O36          C37   1.262       .  A
C37          O38   1.260       .  A
C37         C369   1.489       .  S
O38         Cr43   1.998       .  S
O39         Cr43   1.993       .  S
O39          C40   1.264       .  A
C40         C453   1.485       .  S
Cr41         O44   1.776       .  S
Cr42         O44   1.776       .  S
Cr43         O44   1.772       .  S
O45         Cr63   1.991       .  S
O45          C53   1.263       .  A
O46         Cr63   1.986       .  S
O46          C47   1.261       .  A
C47          O48   1.262       .  A
C47         C360   1.472       .  S
O48         Cr64   1.990       .  S
O49         Cr64   1.991       .  S
O49          C50   1.263       .  A
C50          O51   1.260       .  A
C50         C297   1.472       .  S
O51         Cr65   1.990       .  S
O52         Cr65   1.984       .  S
O52          C53   1.263       .  A
C53         C348   1.482       .  S
O54         Cr63   1.988       .  S
O54          C62   1.261       .  A
O55         Cr63   1.993       .  S
O55          C56   1.262       .  A
C56          O57   1.263       .  A
C56         C321   1.480       .  S
O57         Cr64   1.986       .  S
O58         Cr64   1.991       .  S
O58          C59   1.263       .  A
C59          O60   1.260       .  A
C59         C309   1.478       .  S
O60         Cr65   1.974       .  S
O61         Cr65   1.986       .  S
O61          C62   1.261       .  A
C62         C336   1.476       .  S
Cr63         O66   1.769       .  S
Cr64         O66   1.769       .  S
Cr65         O66   1.768       .  S
O67         Cr85   1.990   1_455  S
O67          C75   1.261       .  A
O68         Cr85   1.988   1_455  S
O68          C69   1.262       .  A
C69          O70   1.262       .  A
C69         C357   1.472       .  S
O70         Cr86   1.989   1_455  S
O71         Cr86   1.990   1_455  S
O71          C72   1.264       .  A
C72          O73   1.261       .  A
C72         C372   1.488       .  S
O73         Cr87   1.996   1_455  S
O74         Cr87   1.984   1_455  S
O74          C75   1.264       .  A
C75         C324   1.484       .  S
O76       Cr1013   1.993       .  S
O76          C84   1.262       .  A
O77       Cr1013   1.990       .  S
O77          C78   1.262       .  A
C78          O79   1.263       .  A
C78         C345   1.476       .  S
O79       Cr1014   1.985       .  S
O80       Cr1014   2.000       .  S
O80          C81   1.263       .  A
C81          O82   1.262       .  A
C81         C384   1.486       .  S
O82       Cr1015   1.984       .  S
O83       Cr1015   1.983       .  S
O83          C84   1.261       .  A
C84         C333   1.472       .  S
Cr85       O1004   1.993       .  S
Cr85       O1005   1.990       .  S
Cr85         O88   1.770       .  S
Cr86       O1007   1.985       .  S
Cr86       O1008   2.000       .  S
Cr86         O88   1.766       .  S
Cr87       O1010   1.984       .  S
Cr87       O1011   1.983       .  S
Cr87         O88   1.766       .  S
O89        Cr107   1.980       .  S
O89          C97   1.259       .  A
O90        Cr107   2.000       .  S
O90          C91   1.268       .  A
C91          O92   1.259       .  A
C91         C285   1.490       .  S
O92        Cr108   1.979       .  S
O93        Cr108   1.996       .  S
O93          C94   1.262       .  A
C94          O95   1.263       .  A
C94         C300   1.473       .  S
O95        Cr109   1.987       .  S
O96        Cr109   2.009       .  S
O96          C97   1.265       .  A
C97         C273   1.470       .  S
O98        Cr107   2.006       .  S
O98         C106   1.264       .  A
O99        Cr107   1.978       .  S
O99         C100   1.259       .  A
C100        O101   1.265       .  A
C100        C249   1.487       .  S
O101       Cr108   1.999       .  S
O102       Cr108   1.970       .  S
O102        C103   1.259       .  A
C103        O104   1.265       .  A
C103        C312   1.478       .  S
O104       Cr109   2.000       .  S
O105       Cr109   1.978       .  S
O105        C106   1.261       .  A
C106        C264   1.491       .  S
Cr107       O110   1.765       .  S
Cr108       O110   1.765       .  S
Cr109       O110   1.763       .  S
O111      Cr1057   2.008       .  S
O111        C119   1.266       .  A
O112      Cr1057   1.974       .  S
O112        C113   1.258       .  A
C113        O114   1.265       .  A
C113        C261   1.475       .  S
O114      Cr1058   2.004       .  S
O115      Cr1058   1.974       .  S
O115        C116   1.261       .  A
C116        O117   1.267       .  A
C116        C240   1.488       .  S
O117      Cr1059   2.013       .  S
O118      Cr1059   1.976       .  S
O118        C119   1.260       .  A
C119        C276   1.473       .  S
O120       Cr129   1.981       .  S
O120        C128   1.260       .  A
O121       Cr129   2.007       .  S
O121        C122   1.266       .  A
C122        O123   1.260       .  A
C122        C252   1.470       .  S
O123       Cr130   1.978       .  S
O124       Cr130   2.013       .  S
O124        C125   1.264       .  A
C125        O126   1.260       .  A
C125        C228   1.495       .  S
O126       Cr131   1.979       .  S
O127       Cr131   2.000       .  S
O127        C128   1.265       .  A
C128        C288   1.481       .  S
Cr129      O1039   2.008   1_455  S
Cr129      O1040   1.974   1_455  S
Cr129       O132   1.774       .  S
Cr130      O1042   2.004   1_455  S
Cr130      O1043   1.974   1_455  S
Cr130       O132   1.770       .  S
Cr131      O1045   2.013   1_455  S
Cr131      O1046   1.976   1_455  S
Cr131       O132   1.766       .  S
O133       Cr151   2.013       .  S
O133        C141   1.268       .  A
O134      Cr1079   1.981       .  S
O134        C135   1.262       .  A
C135        O136   1.268       .  A
C135        C213   1.479       .  S
O136       Cr152   2.010       .  S
O137       Cr152   1.967       .  S
O137       C1066   1.256       .  A
C138        O139   1.260       .  A
C138       O1065   1.256       .  A
C138        C393   1.468       .  S
O139       Cr153   1.992       .  S
O140       Cr153   1.986       .  S
O140        C141   1.262       .  A
C141        C201   1.497       .  S
O142       Cr151   1.996       .  S
O142        C150   1.262       .  A
O143      Cr1079   2.000       .  S
O143        C144   1.262       .  A
C144        O145   1.259       .  A
C144        C177   1.475       .  S
O145       Cr152   1.980       .  S
O146       Cr152   2.012       .  S
O146       C1075   1.268   1_455  A
C147        O148   1.262       .  A
C147       O1074   1.268       .  A
C147        C408   1.484       .  S
O148       Cr153   1.978       .  S
O149       Cr153   1.994       .  S
O149        C150   1.263       .  A
C150        C192   1.476       .  S
Cr151      O1062   1.981       .  S
Cr151      O1071   2.000       .  S
Cr151       O154   1.774       .  S
Cr152      O1082   1.773       .  S
Cr153       O154   1.772       .  S
O154      Cr1080   1.773       .  S
O155       Cr173   2.001       .  S
O155        C163   1.263       .  A
O156       Cr173   1.982       .  S
O156        C157   1.262       .  A
C157        O158   1.267       .  A
C157        C216   1.488       .  S
O158       Cr174   2.011       .  S
O159       Cr174   1.980       .  S
O159        C160   1.260       .  A
C160        O161   1.263       .  A
C160        C225   1.481       .  S
O161       Cr175   2.001       .  S
O162       Cr175   1.982       .  S
O162        C163   1.261       .  A
C163        C180   1.475       .  S
O164       Cr173   1.991       .  S
O164        C172   1.263       .  A
O165       Cr173   1.998       .  S
O165        C166   1.263       .  A
C166        O167   1.261       .  A
C166        C204   1.500       .  S
O167       Cr174   1.990       .  S
O168       Cr174   2.003       .  S
O168        C169   1.265       .  A
C169        O170   1.259       .  A
C169        C237   1.486       .  S
O170       Cr175   1.978       .  S
O171       Cr175   1.993       .  S
O171        C172   1.264       .  A
C172        C189   1.485       .  S
Cr173       O176   1.777       .  S
Cr174       O176   1.777       .  S
Cr175       O176   1.778       .  S
C177        C178   1.402       .  A
C177        C182   1.415       .  A
C178        C179   1.400       .  A
C178        H187   1.084       .  S
C179        C180   1.413       .  A
C179        S183   1.800       .  S
C180        C181   1.402       .  A
C181        C182   1.399       .  A
C181        H188   1.084       .  S
C182        S184   1.804       .  S
S183        H186   1.406       .  S
S184        H185   1.406       .  S
C189        C190   1.405       .  A
C189        C194   1.417       .  A
C190        C191   1.397       .  A
C190        H199   1.082       .  S
C191        C192   1.410       .  A
C191        S195   1.811       .  S
C192        C193   1.405       .  A
C193        C194   1.407       .  A
C193        H200   1.083       .  S
C194        S196   1.802       .  S
S195        H198   1.406       .  S
S196        H197   1.407       .  S
C201        C206   1.417       .  A
C201        C666   1.410       .  A
C202        C203   1.404       .  A
C202        C665   1.410       .  A
C202        H211   1.083       .  S
C203        C204   1.418       .  A
C203        S207   1.802       .  S
C204        C669   1.410       .  A
C205        C206   1.401   1_565  A
C205        C668   1.410       .  A
C205        H212   1.083       .  S
C206        S208   1.802       .  S
S207        H210   1.408       .  S
S208        H209   1.408       .  S
C213        C214   1.402       .  A
C213        C682   1.412   1_545  A
C214        C215   1.401   1_545  A
C214        H223   1.084       .  S
C215        C680   1.417       .  A
C215        S219   1.799   1_565  S
C216        C217   1.406       .  A
C216        C679   1.417       .  A
C217        C218   1.401       .  A
C217        H224   1.084       .  S
C218        C677   1.412       .  A
C218        S220   1.800       .  S
S219        H686   1.405   1_545  S
S220        H685   1.407       .  S
H221        S684   1.407   1_545  S
H222        S683   1.405       .  S
C225        C226   1.403       .  A
C225        C230   1.411       .  A
C226        C227   1.402       .  A
C226        H235   1.085       .  S
C227        C228   1.421       .  A
C227        S231   1.802       .  S
C228        C229   1.409       .  A
C229        C230   1.399       .  A
C229        H236   1.082       .  S
C230        S232   1.803       .  S
S231        H234   1.408       .  S
S232        H233   1.407       .  S
C237        C238   1.405       .  A
C237        C242   1.415       .  A
C238        C239   1.399       .  A
C238        H247   1.083       .  S
C239        C240   1.417       .  A
C239        S243   1.801       .  S
C240        C241   1.407       .  A
C241        C242   1.400       .  A
C241        H248   1.084       .  S
C242        S244   1.800       .  S
S243        H246   1.406       .  S
S244        H245   1.408       .  S
C249        C250   1.408       .  A
C249        C254   1.419       .  A
C250        C251   1.399       .  A
C250        H259   1.082       .  S
C251        C252   1.408       .  A
C251        S255   1.809       .  S
C252        C253   1.400       .  A
C253        C254   1.400       .  A
C253        H260   1.084       .  S
C254        S256   1.802       .  S
S255        H258   1.407       .  S
S256        H257   1.408       .  S
C261        C262   1.401       .  A
C261        C266   1.412       .  A
C262        C263   1.398       .  A
C262        H271   1.085       .  S
C263        C264   1.420       .  A
C263        S267   1.802       .  S
C264        C265   1.409       .  A
C265        C266   1.398       .  A
C265        H272   1.084       .  S
C266        S268   1.803       .  S
S267        H270   1.406       .  S
S268        H269   1.406       .  S
C273        C274   1.402       .  A
C273        C742   1.414   1_545  A
C274        C275   1.398       .  A
C274        H283   1.084       .  S
C275        C740   1.411   1_545  A
C275        S279   1.802       .  S
C276        C277   1.404       .  A
C276        C739   1.411       .  A
C277        C278   1.403       .  A
C277        H284   1.084       .  S
C278        C737   1.414       .  A
C278        S280   1.808       .  S
S279        H746   1.405       .  S
S280        H745   1.401       .  S
H281        S744   1.401   1_545  S
H282        S743   1.405       .  S
C285        C286   1.406       .  A
C285        C290   1.420   1_545  A
C286        C751   1.391   1_545  A
C286        H295   1.083       .  S
C287        C288   1.411       .  A
C287        C750   1.391       .  A
C287        S291   1.799       .  S
C288        C753   1.405       .  A
C289        C290   1.404       .  A
C289        C752   1.405       .  A
C289        H760   1.084       .  S
C290        S292   1.801       .  S
S291        H294   1.405       .  S
S292        H293   1.408   1_565  S
H296        C753   1.084       .  S
C297        C302   1.415       .  A
C297        C762   1.400       .  A
C298        C299   1.399       .  A
C298        C761   1.400   1_545  A
C298        H307   1.084       .  S
C299        C300   1.416       .  A
C299        S303   1.802       .  S
C300        C765   1.399   1_545  A
C301        C302   1.396       .  A
C301        C764   1.399       .  A
C301        H308   1.082       .  S
C302        S304   1.802       .  S
S303        H306   1.405       .  S
S304        H305   1.404       .  S
C309        C310   1.407       .  A
C309        C314   1.412       .  A
C310        C311   1.400       .  A
C310        H319   1.081       .  S
C311        C312   1.413       .  A
C311        S315   1.811       .  S
C312        C313   1.406       .  A
C313        C314   1.394       .  A
C313        H320   1.082       .  S
C314        S316   1.804       .  S
S315        H318   1.407       .  S
S316        H317   1.408       .  S
C321        C322   1.400       .  A
C321        C326   1.416       .  A
C322        C323   1.397       .  A
C322        H331   1.084       .  S
C323        C324   1.422       .  A
C323        S327   1.803       .  S
C324        C325   1.403       .  A
C325        C326   1.397       .  A
C325        H332   1.084       .  S
C326        S328   1.800       .  S
S327        H330   1.403       .  S
S328        H329   1.404       .  S
C333        C334   1.400       .  A
C333        C338   1.413       .  A
C334        C335   1.388       .  A
C334        H343   1.085       .  S
C335        C336   1.414       .  A
C335        S339   1.804       .  S
C336        C337   1.407       .  A
C337        C338   1.405       .  A
C337        H344   1.085       .  S
C338        S340   1.803       .  S
S339        H342   1.403       .  S
S340        H341   1.407       .  S
C345        C346   1.407       .  A
C345        C814   1.410   1_545  A
C346        C347   1.399       .  A
C346        H355   1.084       .  S
C347        C812   1.413   1_545  A
C347        S351   1.804       .  S
C348        C349   1.408       .  A
C348        C811   1.413       .  A
C349        C350   1.396       .  A
C349        H356   1.083       .  S
C350        C809   1.410       .  A
C350        S352   1.803       .  S
S351        H354   1.408       .  S
S352        H353   1.407       .  S
C357        C362   1.412       .  A
C357        C822   1.403   1_545  A
C358        C359   1.397       .  A
C358        C821   1.403       .  A
C358        H367   1.083       .  S
C359        C360   1.412       .  A
C359        S363   1.812       .  S
C360        C825   1.404       .  A
C361        C362   1.402       .  A
C361        C824   1.404   1_545  A
C361        H368   1.084       .  S
C362        S364   1.803       .  S
S363        H366   1.407       .  S
S364        H365   1.407       .  S
C369        C370   1.403       .  A
C369        C374   1.421       .  A
C370        C371   1.398       .  A
C370        H379   1.084       .  S
C371        C372   1.420       .  A
C371        S375   1.803       .  S
C372        C373   1.403       .  A
C373        C374   1.400       .  A
C373        H380   1.085       .  S
C374        S376   1.802       .  S
S375        H378   1.405       .  S
S376        H377   1.403       .  S
C381        C382   1.402       .  A
C381        C386   1.418       .  A
C382        C383   1.395       .  A
C382        H391   1.083       .  S
C383        C384   1.418       .  A
C383        S387   1.801       .  S
C384        C385   1.405       .  A
C385        C386   1.401       .  A
C385        H392   1.084       .  S
C386        S388   1.802       .  S
S387        H390   1.404       .  S
S388        H389   1.406       .  S
C393        C858   1.403       .  A
C393       C1326   1.411       .  A
C394        C395   1.396   1_554  A
C394        C857   1.403       .  A
C394        H403   1.084       .  S
C395        C396   1.414       .  A
C395        S399   1.804       .  S
C396       C1789   1.402       .  A
C397        C398   1.394   1_566  A
C397       C1788   1.402   1_455  A
C397        H404   1.084       .  S
C398       C1321   1.411       .  A
C398        S400   1.803       .  S
S399        H402   1.407       .  S
S400        H401   1.407       .  S
C405        C406   1.404       .  A
C405       C1338   1.416       .  A
C406        C407   1.400   1_556  A
C406        H415   1.084       .  S
C407        C408   1.415       .  A
C407        S411   1.802       .  S
C408       C1337   1.405       .  A
C409        C410   1.401   1_554  A
C409       C1336   1.405   1_455  A
C409        H416   1.084       .  S
C410       C1333   1.416       .  A
C410        S412   1.803       .  S
S411        H414   1.407       .  S
S412        H413   1.407       .  S
C417        C418   1.402       .  A
C417        C422   1.417       .  A
C418        C419   1.400       .  A
C418        H427   1.083       .  S
C419        C420   1.414       .  A
C419        S423   1.797       .  S
C420        C421   1.400       .  A
C421        C422   1.399       .  A
C421        H428   1.083       .  S
C422        S424   1.798       .  S
S423        H426   1.407       .  S
S424        H425   1.406       .  S
C429        C430   1.403       .  A
C429        C434   1.420       .  A
C430        C431   1.398       .  A
C430        H439   1.084       .  S
C431        C432   1.416       .  A
C431        S435   1.799       .  S
C432        C433   1.402       .  A
C433        C434   1.400       .  A
C433        H440   1.084       .  S
C434        S436   1.804       .  S
S435        H438   1.405       .  S
S436        H437   1.408       .  S
C441        C442   1.402       .  A
C441        C446   1.414       .  A
C442        C907   1.406       .  A
C442        H451   1.083       .  S
C443        C444   1.416       .  A
C443        C906   1.406       .  A
C443        S447   1.805       .  S
C444        C445   1.400       .  A
C445        C910   1.398       .  A
C445        H452   1.084       .  S
C446        C909   1.398   1_545  A
C446        S448   1.797       .  S
S447        H450   1.407       .  S
S448        H449   1.406       .  S
C453        C454   1.407       .  A
C453        C922   1.413       .  A
C454        C455   1.400   1_545  A
C454        H463   1.084       .  S
C455        C920   1.413       .  A
C455        S459   1.800       .  S
C456        C457   1.407       .  A
C456        C919   1.413       .  A
C457        C458   1.403       .  A
C457        H464   1.084       .  S
C458        C917   1.413       .  A
C458        S460   1.802       .  S
S459        H462   1.407       .  S
S460        H461   1.407       .  S
O465       Cr483   1.986       .  S
O465        C473   1.263       .  A
O466      Cr1411   2.003   1_455  S
O466        C467   1.263       .  A
C467        O468   1.259       .  A
C467        C920   1.486       .  S
O468       Cr484   1.984       .  S
O469       Cr484   1.998       .  S
O469       C1398   1.265   1_455  A
C470       O1397   1.265       .  A
C470        O471   1.257       .  A
C470        C860   1.469       .  S
O471       Cr485   1.964       .  S
O472       Cr485   2.005       .  S
O472        C473   1.265       .  A
C473        C908   1.481       .  S
O474       Cr483   2.001       .  S
O474        C482   1.263       .  A
O475      Cr1411   1.982   1_455  S
O475        C476   1.263       .  A
C476        O477   1.267       .  A
C476        C884   1.478       .  S
O477       Cr484   2.004       .  S
O478       Cr484   1.972       .  S
O478       C1407   1.257       .  A
C479       O1406   1.257       .  A
C479        O480   1.264       .  A
C479        C869   1.484       .  S
O480       Cr485   2.007       .  S
O481       Cr485   1.979       .  S
O481        C482   1.262       .  A
C482        C893   1.485       .  S
Cr483      O1394   2.003       .  S
Cr483      O1403   1.981       .  S
Cr483       O486   1.776       .  S
Cr484      O1414   1.777   1_455  S
Cr485       O486   1.777       .  S
O486      Cr1412   1.777       .  S
O487       Cr505   1.989       .  S
O487        C495   1.263       .  A
O488       Cr505   1.999       .  S
O488        C489   1.263       .  A
C489        O490   1.262       .  A
C489        C896   1.484       .  S
O490       Cr506   1.987       .  S
O491       Cr506   2.001       .  S
O491        C492   1.262       .  A
C492        O493   1.261       .  A
C492        C845   1.486       .  S
O493       Cr507   1.976       .  S
O494       Cr507   1.998       .  S
O494        C495   1.263       .  A
C495        C905   1.480       .  S
O496       Cr505   1.996       .  S
O496        C504   1.263       .  A
O497       Cr505   1.990       .  S
O497        C498   1.264       .  A
C498        O499   1.264       .  A
C498        C881   1.482       .  S
O499       Cr506   1.997       .  S
O500       Cr506   1.983       .  S
O500        C501   1.262       .  A
C501        O502   1.260       .  A
C501        C833   1.489       .  S
O502       Cr507   1.998       .  S
O503       Cr507   1.993       .  S
O503        C504   1.264       .  A
C504        C917   1.485       .  S
Cr505       O508   1.776       .  S
Cr506       O508   1.776       .  S
Cr507       O508   1.772       .  S
O509       Cr527   1.991       .  S
O509        C517   1.263       .  A
O510       Cr527   1.986       .  S
O510        C511   1.261       .  A
C511        O512   1.262       .  A
C511        C824   1.472       .  S
O512       Cr528   1.990       .  S
O513       Cr528   1.991       .  S
O513        C514   1.263       .  A
C514        O515   1.260       .  A
C514        C761   1.472       .  S
O515       Cr529   1.990       .  S
O516       Cr529   1.984       .  S
O516        C517   1.263       .  A
C517        C812   1.482       .  S
O518       Cr527   1.988       .  S
O518        C526   1.261       .  A
O519       Cr527   1.993       .  S
O519        C520   1.262       .  A
C520        O521   1.263       .  A
C520        C785   1.479       .  S
O521       Cr528   1.986       .  S
O522       Cr528   1.991       .  S
O522        C523   1.263       .  A
C523        O524   1.260       .  A
C523        C773   1.478       .  S
O524       Cr529   1.974       .  S
O525       Cr529   1.986       .  S
O525        C526   1.261       .  A
C526        C800   1.476       .  S
Cr527       O530   1.769       .  S
Cr528       O530   1.769       .  S
Cr529       O530   1.768       .  S
O531       Cr549   1.990   1_455  S
O531        C539   1.261       .  A
O532       Cr549   1.988   1_455  S
O532        C533   1.262       .  A
C533        O534   1.262       .  A
C533        C821   1.472       .  S
O534       Cr550   1.989   1_455  S
O535       Cr550   1.990   1_455  S
O535        C536   1.264       .  A
C536        O537   1.261       .  A
C536        C836   1.488       .  S
O537       Cr551   1.996   1_455  S
O538       Cr551   1.984   1_455  S
O538        C539   1.264       .  A
C539        C788   1.484       .  S
O540      Cr1477   1.993       .  S
O540        C548   1.262       .  A
O541      Cr1477   1.990       .  S
O541        C542   1.262       .  A
C542        O543   1.263       .  A
C542        C809   1.476       .  S
O543      Cr1478   1.985       .  S
O544      Cr1478   2.000       .  S
O544        C545   1.263       .  A
C545        O546   1.262       .  A
C545        C848   1.486       .  S
O546      Cr1479   1.984       .  S
O547      Cr1479   1.983       .  S
O547        C548   1.261       .  A
C548        C797   1.472       .  S
Cr549      O1468   1.993       .  S
Cr549      O1469   1.990       .  S
Cr549       O552   1.770       .  S
Cr550      O1471   1.985       .  S
Cr550      O1472   2.000       .  S
Cr550       O552   1.766       .  S
Cr551      O1474   1.984       .  S
Cr551      O1475   1.983       .  S
Cr551       O552   1.766       .  S
O553       Cr571   1.980       .  S
O553        C561   1.259       .  A
O554       Cr571   2.000       .  S
O554        C555   1.268       .  A
C555        O556   1.259       .  A
C555        C749   1.490       .  S
O556       Cr572   1.979       .  S
O557       Cr572   1.997       .  S
O557        C558   1.262       .  A
C558        O559   1.263       .  A
C558        C764   1.473       .  S
O559       Cr573   1.987       .  S
O560       Cr573   2.009       .  S
O560        C561   1.265       .  A
C561        C737   1.470       .  S
O562       Cr571   2.006       .  S
O562        C570   1.264       .  A
O563       Cr571   1.978       .  S
O563        C564   1.259       .  A
C564        O565   1.265       .  A
C564        C713   1.487       .  S
O565       Cr572   1.999       .  S
O566       Cr572   1.970       .  S
O566        C567   1.259       .  A
C567        O568   1.265       .  A
C567        C776   1.478       .  S
O568       Cr573   2.000       .  S
O569       Cr573   1.978       .  S
O569        C570   1.261       .  A
C570        C728   1.491       .  S
Cr571       O574   1.765       .  S
Cr572       O574   1.765       .  S
Cr573       O574   1.763       .  S
O575      Cr1521   2.008       .  S
O575        C583   1.266       .  A
O576      Cr1521   1.974       .  S
O576        C577   1.258       .  A
C577        O578   1.265       .  A
C577        C725   1.475       .  S
O578      Cr1522   2.004       .  S
O579      Cr1522   1.975       .  S
O579        C580   1.261       .  A
C580        O581   1.267       .  A
C580        C704   1.488       .  S
O581      Cr1523   2.013       .  S
O582      Cr1523   1.976       .  S
O582        C583   1.260       .  A
C583        C740   1.473       .  S
O584       Cr593   1.981       .  S
O584        C592   1.260       .  A
O585       Cr593   2.007       .  S
O585        C586   1.266       .  A
C586        O587   1.260       .  A
C586        C716   1.470       .  S
O587       Cr594   1.978       .  S
O588       Cr594   2.013       .  S
O588        C589   1.264       .  A
C589        O590   1.260       .  A
C589        C692   1.495       .  S
O590       Cr595   1.979       .  S
O591       Cr595   2.000       .  S
O591        C592   1.265       .  A
C592        C752   1.481       .  S
Cr593      O1503   2.008   1_455  S
Cr593      O1504   1.974   1_455  S
Cr593       O596   1.774       .  S
Cr594      O1506   2.004   1_455  S
Cr594      O1507   1.975   1_455  S
Cr594       O596   1.770       .  S
Cr595      O1509   2.013   1_455  S
Cr595      O1510   1.976   1_455  S
Cr595       O596   1.766       .  S
O597       Cr615   2.013       .  S
O597        C605   1.268       .  A
O598      Cr1543   1.981       .  S
O598        C599   1.262       .  A
C599        O600   1.268       .  A
C599        C677   1.479       .  S
O600       Cr616   2.010       .  S
O601       Cr616   1.967       .  S
O601       C1530   1.256       .  A
C602       O1529   1.256       .  A
C602        O603   1.260       .  A
C602        C857   1.468       .  S
O603       Cr617   1.992       .  S
O604       Cr617   1.986       .  S
O604        C605   1.262       .  A
C605        C665   1.497       .  S
O606       Cr615   1.996       .  S
O606        C614   1.262       .  A
O607      Cr1543   2.000       .  S
O607        C608   1.262       .  A
C608        O609   1.259       .  A
C608        C641   1.475       .  S
O609       Cr616   1.980       .  S
O610       Cr616   2.012       .  S
O610       C1539   1.268   1_455  A
C611       O1538   1.268       .  A
C611        O612   1.262       .  A
C611        C872   1.484       .  S
O612       Cr617   1.978       .  S
O613       Cr617   1.994       .  S
O613        C614   1.263       .  A
C614        C656   1.476       .  S
Cr615      O1526   1.981       .  S
Cr615      O1535   2.000       .  S
Cr615       O618   1.774       .  S
Cr616      O1546   1.773       .  S
Cr617       O618   1.772       .  S
O618      Cr1544   1.773       .  S
O619       Cr637   2.001       .  S
O619        C627   1.263       .  A
O620       Cr637   1.982       .  S
O620        C621   1.262       .  A
C621        O622   1.267       .  A
C621        C680   1.488       .  S
O622       Cr638   2.011       .  S
O623       Cr638   1.980       .  S
O623        C624   1.261       .  A
C624        O625   1.263       .  A
C624        C689   1.481       .  S
O625       Cr639   2.001       .  S
O626       Cr639   1.982       .  S
O626        C627   1.261       .  A
C627        C644   1.475       .  S
O628       Cr637   1.991       .  S
O628        C636   1.263       .  A
O629       Cr637   1.998       .  S
O629        C630   1.263       .  A
C630        O631   1.261       .  A
C630        C668   1.500       .  S
O631       Cr638   1.990       .  S
O632       Cr638   2.003       .  S
O632        C633   1.265       .  A
C633        O634   1.259       .  A
C633        C701   1.486       .  S
O634       Cr639   1.978       .  S
O635       Cr639   1.993       .  S
O635        C636   1.264       .  A
C636        C653   1.485       .  S
Cr637       O640   1.777       .  S
Cr638       O640   1.777       .  S
Cr639       O640   1.778       .  S
C641        C642   1.402       .  A
C641        C646   1.415       .  A
C642        C643   1.400       .  A
C642        H651   1.084       .  S
C643        C644   1.413       .  A
C643        S647   1.800       .  S
C644        C645   1.402       .  A
C645        C646   1.399       .  A
C645        H652   1.084       .  S
C646        S648   1.804       .  S
S647        H650   1.406       .  S
S648        H649   1.406       .  S
C653        C654   1.405       .  A
C653        C658   1.417       .  A
C654        C655   1.397       .  A
C654        H663   1.082       .  S
C655        C656   1.410       .  A
C655        S659   1.811       .  S
C656        C657   1.405       .  A
C657        C658   1.407       .  A
C657        H664   1.083       .  S
C658        S660   1.802       .  S
S659        H662   1.406       .  S
S660        H661   1.407       .  S
C665        C670   1.417       .  A
C666        C667   1.404   1_545  A
C666        H675   1.083       .  S
C667        C668   1.418       .  A
C667        S671   1.802       .  S
C669        C670   1.401       .  A
C669        H676   1.083       .  S
C670        S672   1.802       .  S
S671        H674   1.408       .  S
S672        H673   1.408       .  S
C677        C678   1.402       .  A
C678        C679   1.401       .  A
C678        H687   1.084       .  S
C679        S683   1.799       .  S
C680        C681   1.406       .  A
C681        C682   1.402       .  A
C681        H688   1.084       .  S
C682        S684   1.801       .  S
C689        C690   1.403       .  A
C689        C694   1.411       .  A
C690        C691   1.402       .  A
C690        H699   1.085       .  S
C691        C692   1.421       .  A
C691        S695   1.802       .  S
C692        C693   1.409       .  A
C693        C694   1.399       .  A
C693        H700   1.082       .  S
C694        S696   1.803       .  S
S695        H698   1.408       .  S
S696        H697   1.407       .  S
C701        C702   1.405       .  A
C701        C706   1.415       .  A
C702        C703   1.399       .  A
C702        H711   1.083       .  S
C703        C704   1.417       .  A
C703        S707   1.801       .  S
C704        C705   1.407       .  A
C705        C706   1.400       .  A
C705        H712   1.084       .  S
C706        S708   1.800       .  S
S707        H710   1.406       .  S
S708        H709   1.408       .  S
C713        C714   1.408       .  A
C713        C718   1.419       .  A
C714        C715   1.399       .  A
C714        H723   1.082       .  S
C715        C716   1.408       .  A
C715        S719   1.809       .  S
C716        C717   1.400       .  A
C717        C718   1.400       .  A
C717        H724   1.084       .  S
C718        S720   1.802       .  S
S719        H722   1.407       .  S
S720        H721   1.408       .  S
C725        C726   1.401       .  A
C725        C730   1.412       .  A
C726        C727   1.398       .  A
C726        H735   1.085       .  S
C727        C728   1.420       .  A
C727        S731   1.802       .  S
C728        C729   1.409       .  A
C729        C730   1.398       .  A
C729        H736   1.084       .  S
C730        S732   1.803       .  S
S731        H734   1.406       .  S
S732        H733   1.406       .  S
C737        C738   1.402       .  A
C738        C739   1.398       .  A
C738        H747   1.084       .  S
C739        S743   1.802       .  S
C740        C741   1.404       .  A
C741        C742   1.403       .  A
C741        H748   1.084       .  S
C742        S744   1.808       .  S
C749        C750   1.406       .  A
C749        C754   1.421       .  A
C750        H759   1.083       .  S
C751        C752   1.411       .  A
C751        S755   1.799       .  S
C753        C754   1.404       .  A
C754        S756   1.801       .  S
S755        H758   1.405       .  S
S756        H757   1.408       .  S
C761        C766   1.416       .  A
C762        C763   1.399       .  A
C762        H771   1.084       .  S
C763        C764   1.416       .  A
C763        S767   1.802       .  S
C765        C766   1.396       .  A
C765        H772   1.082       .  S
C766        S768   1.802       .  S
S767        H770   1.405       .  S
S768        H769   1.404       .  S
C773        C774   1.407       .  A
C773        C778   1.412       .  A
C774        C775   1.400       .  A
C774        H783   1.081       .  S
C775        C776   1.413       .  A
C775        S779   1.811       .  S
C776        C777   1.406       .  A
C777        C778   1.394       .  A
C777        H784   1.081       .  S
C778        S780   1.804       .  S
S779        H782   1.407       .  S
S780        H781   1.408       .  S
C785        C786   1.400       .  A
C785        C790   1.416       .  A
C786        C787   1.397       .  A
C786        H795   1.084       .  S
C787        C788   1.422       .  A
C787        S791   1.803       .  S
C788        C789   1.403       .  A
C789        C790   1.397       .  A
C789        H796   1.084       .  S
C790        S792   1.800       .  S
S791        H794   1.403       .  S
S792        H793   1.404       .  S
C797        C798   1.400       .  A
C797        C802   1.413       .  A
C798        C799   1.388       .  A
C798        H807   1.085       .  S
C799        C800   1.414       .  A
C799        S803   1.804       .  S
C800        C801   1.407       .  A
C801        C802   1.405       .  A
C801        H808   1.085       .  S
C802        S804   1.803       .  S
S803        H806   1.403       .  S
S804        H805   1.407       .  S
C809        C810   1.407       .  A
C810        C811   1.399       .  A
C810        H819   1.084       .  S
C811        S815   1.804       .  S
C812        C813   1.408       .  A
C813        C814   1.396       .  A
C813        H820   1.083       .  S
C814        S816   1.803       .  S
S815        H818   1.408       .  S
S816        H817   1.407       .  S
C821        C826   1.412       .  A
C822        C823   1.397       .  A
C822        H831   1.083       .  S
C823        C824   1.412       .  A
C823        S827   1.812       .  S
C825        C826   1.402       .  A
C825        H832   1.084       .  S
C826        S828   1.803       .  S
S827        H830   1.407       .  S
S828        H829   1.407       .  S
C833        C834   1.403       .  A
C833        C838   1.421       .  A
C834        C835   1.398       .  A
C834        H843   1.084       .  S
C835        C836   1.420       .  A
C835        S839   1.803       .  S
C836        C837   1.403       .  A
C837        C838   1.400       .  A
C837        H844   1.085       .  S
C838        S840   1.802       .  S
S839        H842   1.405       .  S
S840        H841   1.403       .  S
C845        C846   1.402       .  A
C845        C850   1.418       .  A
C846        C847   1.395       .  A
C846        H855   1.083       .  S
C847        C848   1.418       .  A
C847        S851   1.801       .  S
C848        C849   1.405       .  A
C849        C850   1.401       .  A
C849        H856   1.084       .  S
C850        S852   1.802       .  S
S851        H854   1.404       .  S
S852        H853   1.406       .  S
C857       C1790   1.411       .  A
C858        C859   1.396   1_544  A
C858        H867   1.084       .  S
C859        C860   1.414       .  A
C859        S863   1.804       .  S
C860       C1325   1.402       .  A
C861       C1324   1.402   1_455  A
C861        C862   1.394   1_556  A
C861        H868   1.084       .  S
C862       C1785   1.411       .  A
C862        S864   1.803       .  S
S863        H866   1.407       .  S
S864        H865   1.407       .  S
C869        C870   1.404       .  A
C869       C1802   1.416       .  A
C870        C871   1.400   1_556  A
C870        H879   1.084       .  S
C871        C872   1.415       .  A
C871        S875   1.802       .  S
C872       C1801   1.405       .  A
C873       C1800   1.405   1_455  A
C873        C874   1.401   1_554  A
C873        H880   1.084       .  S
C874       C1797   1.416       .  A
C874        S876   1.804       .  S
S875        H878   1.407       .  S
S876        H877   1.407       .  S
C881        C882   1.402       .  A
C881        C886   1.417       .  A
C882        C883   1.400       .  A
C882        H891   1.083       .  S
C883        C884   1.414       .  A
C883        S887   1.797       .  S
C884        C885   1.400       .  A
C885        C886   1.399       .  A
C885        H892   1.083       .  S
C886        S888   1.798       .  S
S887        H890   1.407       .  S
S888        H889   1.406       .  S
C893        C894   1.403       .  A
C893        C898   1.420       .  A
C894        C895   1.398       .  A
C894        H903   1.084       .  S
C895        C896   1.416       .  A
C895        S899   1.799       .  S
C896        C897   1.402       .  A
C897        C898   1.400       .  A
C897        H904   1.084       .  S
C898        S900   1.804       .  S
S899        H902   1.405       .  S
S900        H901   1.408       .  S
C905        C906   1.402       .  A
C905        C910   1.414       .  A
C906        H915   1.083       .  S
C907        C908   1.416   1_545  A
C907        S911   1.805   1_545  S
C908        C909   1.400       .  A
C909        H916   1.084       .  S
C910        S912   1.797       .  S
S911        H914   1.407   1_565  S
S912        H913   1.406       .  S
C917        C918   1.407       .  A
C918        C919   1.400       .  A
C918        H927   1.084       .  S
C919        S923   1.800       .  S
C920        C921   1.407       .  A
C921        C922   1.403   1_565  A
C921        H928   1.084       .  S
C922        S924   1.802       .  S
S923        H926   1.407       .  S
S924        H925   1.407       .  S
O929       Cr947   1.986       .  S
O929        C937   1.263       .  A
O930        C931   1.263       .  A
C931        O932   1.259       .  A
C931       C1384   1.486       .  S
O932       Cr948   1.984       .  S
O933       Cr948   1.998       .  S
C934        O935   1.257       .  A
C934       C1324   1.469       .  S
O935       Cr949   1.964       .  S
O936       Cr949   2.005       .  S
O936        C937   1.265       .  A
C937       C1372   1.481       .  S
O938       Cr947   2.001       .  S
O938        C946   1.263       .  A
O939        C940   1.263       .  A
C940        O941   1.267       .  A
C940       C1348   1.478       .  S
O941       Cr948   2.004       .  S
O942       Cr948   1.972       .  S
C943        O944   1.264   1_455  A
C943       C1333   1.484       .  S
O944       Cr949   2.007       .  S
O945       Cr949   1.979       .  S
O945        C946   1.262       .  A
C946       C1357   1.485       .  S
Cr947       O950   1.776       .  S
Cr949       O950   1.778       .  S
O951       Cr969   1.989       .  S
O951        C959   1.263       .  A
O952       Cr969   1.999       .  S
O952        C953   1.263       .  A
C953        O954   1.262       .  A
C953       C1360   1.484       .  S
O954       Cr970   1.987       .  S
O955       Cr970   2.001       .  S
O955        C956   1.262       .  A
C956        O957   1.261       .  A
C956       C1309   1.486       .  S
O957       Cr971   1.976       .  S
O958       Cr971   1.998       .  S
O958        C959   1.263       .  A
C959       C1369   1.480       .  S
O960       Cr969   1.996       .  S
O960        C968   1.263       .  A
O961       Cr969   1.990       .  S
O961        C962   1.264       .  A
C962        O963   1.264       .  A
C962       C1345   1.482       .  S
O963       Cr970   1.997       .  S
O964       Cr970   1.983       .  S
O964        C965   1.262       .  A
C965        O966   1.260       .  A
C965       C1297   1.489       .  S
O966       Cr971   1.998       .  S
O967       Cr971   1.993       .  S
O967        C968   1.264       .  A
C968       C1381   1.485       .  S
Cr969       O972   1.776       .  S
Cr970       O972   1.776       .  S
Cr971       O972   1.772       .  S
O973       Cr991   1.991       .  S
O973        C981   1.263       .  A
O974       Cr991   1.986       .  S
O974        C975   1.261       .  A
C975        O976   1.262       .  A
C975       C1288   1.472       .  S
O976       Cr992   1.989       .  S
O977       Cr992   1.991       .  S
O977        C978   1.263       .  A
C978        O979   1.260       .  A
C978       C1225   1.472       .  S
O979       Cr993   1.990       .  S
O980       Cr993   1.984       .  S
O980        C981   1.263       .  A
C981       C1276   1.482       .  S
O982       Cr991   1.988       .  S
O982        C990   1.261       .  A
O983       Cr991   1.993       .  S
O983        C984   1.262       .  A
C984        O985   1.263       .  A
C984       C1249   1.480       .  S
O985       Cr992   1.986       .  S
O986       Cr992   1.991       .  S
O986        C987   1.263       .  A
C987        O988   1.260       .  A
C987       C1237   1.477       .  S
O988       Cr993   1.974       .  S
O989       Cr993   1.986       .  S
O989        C990   1.261       .  A
C990       C1264   1.476       .  S
Cr991       O994   1.769       .  S
Cr992       O994   1.769       .  S
Cr993       O994   1.768       .  S
O995      Cr1013   1.990       .  S
O995       C1003   1.261       .  A
O996      Cr1013   1.988       .  S
O996        C997   1.262       .  A
C997        O998   1.262       .  A
C997       C1285   1.472       .  S
O998      Cr1014   1.989       .  S
O999      Cr1014   1.990       .  S
O999       C1000   1.264       .  A
C1000      O1001   1.261       .  A
C1000      C1300   1.488       .  S
O1001     Cr1015   1.996       .  S
O1002     Cr1015   1.984       .  S
O1002      C1003   1.264       .  A
C1003      C1252   1.484       .  S
O1004      C1012   1.262       .  A
O1005      C1006   1.262       .  A
C1006      O1007   1.263       .  A
C1006      C1273   1.476       .  S
O1008      C1009   1.263       .  A
C1009      O1010   1.262       .  A
C1009      C1312   1.486       .  S
O1011      C1012   1.261       .  A
C1012      C1261   1.472       .  S
Cr1013     O1016   1.770       .  S
Cr1014     O1016   1.766       .  S
Cr1015     O1016   1.766       .  S
O1017     Cr1035   1.980       .  S
O1017      C1025   1.259       .  A
O1018     Cr1035   2.000       .  S
O1018      C1019   1.267       .  A
C1019      O1020   1.259       .  A
C1019      C1213   1.490       .  S
O1020     Cr1036   1.979       .  S
O1021     Cr1036   1.996       .  S
O1021      C1022   1.262       .  A
C1022      O1023   1.263       .  A
C1022      C1228   1.473       .  S
O1023     Cr1037   1.987       .  S
O1024     Cr1037   2.009       .  S
O1024      C1025   1.265       .  A
C1025      C1201   1.470       .  S
O1026     Cr1035   2.006       .  S
O1026      C1034   1.264       .  A
O1027     Cr1035   1.978       .  S
O1027      C1028   1.259       .  A
C1028      O1029   1.265       .  A
C1028      C1177   1.487       .  S
O1029     Cr1036   1.999       .  S
O1030     Cr1036   1.970       .  S
O1030      C1031   1.259       .  A
C1031      O1032   1.265       .  A
C1031      C1240   1.478       .  S
O1032     Cr1037   2.000       .  S
O1033     Cr1037   1.978       .  S
O1033      C1034   1.261       .  A
C1034      C1192   1.491       .  S
Cr1035     O1038   1.765       .  S
Cr1036     O1038   1.765       .  S
Cr1037     O1038   1.763       .  S
O1039      C1047   1.266       .  A
O1040      C1041   1.258       .  A
C1041      O1042   1.265       .  A
C1041      C1189   1.475       .  S
O1043      C1044   1.261       .  A
C1044      O1045   1.267       .  A
C1044      C1168   1.488       .  S
O1046      C1047   1.260       .  A
C1047      C1204   1.473       .  S
O1048     Cr1057   1.981       .  S
O1048      C1056   1.260       .  A
O1049     Cr1057   2.007       .  S
O1049      C1050   1.266       .  A
C1050      O1051   1.260       .  A
C1050      C1180   1.470       .  S
O1051     Cr1058   1.978       .  S
O1052     Cr1058   2.012       .  S
O1052      C1053   1.264       .  A
C1053      O1054   1.260       .  A
C1053      C1156   1.495       .  S
O1054     Cr1059   1.979       .  S
O1055     Cr1059   2.000       .  S
O1055      C1056   1.265       .  A
C1056      C1216   1.481       .  S
Cr1057     O1060   1.774       .  S
Cr1058     O1060   1.770       .  S
Cr1059     O1060   1.766       .  S
O1061     Cr1079   2.013   1_655  S
O1061      C1069   1.268       .  A
O1062      C1063   1.262       .  A
C1063      O1064   1.268       .  A
C1063      C1141   1.479       .  S
O1064     Cr1080   2.011       .  S
O1065     Cr1080   1.967       .  S
C1066      O1067   1.260   1_455  A
C1066      C1321   1.468       .  S
O1067     Cr1081   1.992       .  S
O1068     Cr1081   1.986       .  S
O1068      C1069   1.262       .  A
C1069      C1129   1.497       .  S
O1070     Cr1079   1.996   1_655  S
O1070      C1078   1.262       .  A
O1071      C1072   1.262       .  A
C1072      O1073   1.259       .  A
C1072      C1105   1.476       .  S
O1073     Cr1080   1.980       .  S
O1074     Cr1080   2.012       .  S
C1075      O1076   1.262       .  A
C1075      C1336   1.484       .  S
O1076     Cr1081   1.978       .  S
O1077     Cr1081   1.994       .  S
O1077      C1078   1.263       .  A
C1078      C1120   1.476       .  S
Cr1079     O1082   1.774       .  S
Cr1081     O1082   1.772   1_655  S
O1083     Cr1101   2.001       .  S
O1083      C1091   1.263       .  A
O1084     Cr1101   1.982       .  S
O1084      C1085   1.262       .  A
C1085      O1086   1.267       .  A
C1085      C1144   1.488       .  S
O1086     Cr1102   2.011       .  S
O1087     Cr1102   1.980       .  S
O1087      C1088   1.260       .  A
C1088      O1089   1.263       .  A
C1088      C1153   1.481       .  S
O1089     Cr1103   2.001       .  S
O1090     Cr1103   1.982       .  S
O1090      C1091   1.261       .  A
C1091      C1108   1.475       .  S
O1092     Cr1101   1.992       .  S
O1092      C1100   1.263       .  A
O1093     Cr1101   1.998       .  S
O1093      C1094   1.263       .  A
C1094      O1095   1.261       .  A
C1094      C1132   1.500       .  S
O1095     Cr1102   1.990       .  S
O1096     Cr1102   2.003       .  S
O1096      C1097   1.265       .  A
C1097      O1098   1.259       .  A
C1097      C1165   1.486       .  S
O1098     Cr1103   1.978       .  S
O1099     Cr1103   1.993       .  S
O1099      C1100   1.264       .  A
C1100      C1117   1.485       .  S
Cr1101     O1104   1.777       .  S
Cr1102     O1104   1.777       .  S
Cr1103     O1104   1.778       .  S
C1105      C1106   1.402       .  A
C1105      C1110   1.415       .  A
C1106      C1107   1.400       .  A
C1106      H1115   1.084       .  S
C1107      C1108   1.414       .  A
C1107      S1111   1.800       .  S
C1108      C1109   1.402       .  A
C1109      C1110   1.399       .  A
C1109      H1116   1.084       .  S
C1110      S1112   1.804       .  S
S1111      H1114   1.406       .  S
S1112      H1113   1.406       .  S
C1117      C1118   1.406       .  A
C1117      C1122   1.417       .  A
C1118      C1119   1.397       .  A
C1118      H1127   1.082       .  S
C1119      C1120   1.410       .  A
C1119      S1123   1.811       .  S
C1120      C1121   1.405       .  A
C1121      C1122   1.407       .  A
C1121      H1128   1.083       .  S
C1122      S1124   1.802       .  S
S1123      H1126   1.406       .  S
S1124      H1125   1.407       .  S
C1129      C1594   1.410       .  A
C1129      C1134   1.417       .  A
C1130      C1593   1.410       .  A
C1130      C1131   1.404       .  A
C1130      H1139   1.083       .  S
C1131      C1132   1.418       .  A
C1131      S1135   1.802       .  S
C1132      C1597   1.410       .  A
C1133      C1596   1.410       .  A
C1133      C1134   1.401   1_565  A
C1133      H1140   1.083       .  S
C1134      S1136   1.802       .  S
S1135      H1138   1.408       .  S
S1136      H1137   1.408       .  S
C1141      C1142   1.402       .  A
C1141      C1610   1.412   1_545  A
C1142      C1143   1.401   1_545  A
C1142      H1151   1.084       .  S
C1143      C1608   1.417       .  A
C1143      S1147   1.799   1_565  S
C1144      C1607   1.417       .  A
C1144      C1145   1.406       .  A
C1145      C1146   1.401       .  A
C1145      H1152   1.084       .  S
C1146      C1605   1.412       .  A
C1146      S1148   1.800       .  S
S1147      H1614   1.405   1_545  S
S1148      H1613   1.407       .  S
H1149      S1612   1.407   1_545  S
H1150      S1611   1.405       .  S
C1153      C1154   1.403       .  A
C1153      C1158   1.411       .  A
C1154      C1155   1.402       .  A
C1154      H1163   1.085       .  S
C1155      C1156   1.421       .  A
C1155      S1159   1.802       .  S
C1156      C1157   1.409       .  A
C1157      C1158   1.399       .  A
C1157      H1164   1.082       .  S
C1158      S1160   1.803       .  S
S1159      H1162   1.408       .  S
S1160      H1161   1.407       .  S
C1165      C1166   1.405       .  A
C1165      C1170   1.415       .  A
C1166      C1167   1.399       .  A
C1166      H1175   1.083       .  S
C1167      C1168   1.417       .  A
C1167      S1171   1.801       .  S
C1168      C1169   1.407       .  A
C1169      C1170   1.400       .  A
C1169      H1176   1.084       .  S
C1170      S1172   1.800       .  S
S1171      H1174   1.406       .  S
S1172      H1173   1.408       .  S
C1177      C1178   1.408       .  A
C1177      C1182   1.419       .  A
C1178      C1179   1.399       .  A
C1178      H1187   1.082       .  S
C1179      C1180   1.408       .  A
C1179      S1183   1.809       .  S
C1180      C1181   1.400       .  A
C1181      C1182   1.400       .  A
C1181      H1188   1.084       .  S
C1182      S1184   1.802       .  S
S1183      H1186   1.407       .  S
S1184      H1185   1.408       .  S
C1189      C1190   1.401       .  A
C1189      C1194   1.412       .  A
C1190      C1191   1.398       .  A
C1190      H1199   1.085       .  S
C1191      C1192   1.420       .  A
C1191      S1195   1.802       .  S
C1192      C1193   1.409       .  A
C1193      C1194   1.398       .  A
C1193      H1200   1.084       .  S
C1194      S1196   1.803       .  S
S1195      H1198   1.406       .  S
S1196      H1197   1.406       .  S
C1201      C1202   1.402       .  A
C1201      C1670   1.414   1_545  A
C1202      C1203   1.398       .  A
C1202      H1211   1.084       .  S
C1203      C1668   1.411   1_545  A
C1203      S1207   1.802       .  S
C1204      C1667   1.411       .  A
C1204      C1205   1.404       .  A
C1205      C1206   1.403       .  A
C1205      H1212   1.084       .  S
C1206      C1665   1.414       .  A
C1206      S1208   1.808       .  S
S1207      H1674   1.405       .  S
S1208      H1673   1.402       .  S
H1209      S1672   1.402   1_545  S
H1210      S1671   1.405       .  S
C1213      C1214   1.406       .  A
C1213      C1218   1.420   1_545  A
C1214      C1679   1.391   1_545  A
C1214      H1223   1.083       .  S
C1215      C1678   1.391       .  A
C1215      C1216   1.411       .  A
C1215      S1219   1.799       .  S
C1216      C1681   1.405       .  A
C1217      C1680   1.405       .  A
C1217      C1218   1.404       .  A
C1217      H1688   1.084       .  S
C1218      S1220   1.801       .  S
S1219      H1222   1.405       .  S
S1220      H1221   1.408   1_565  S
H1224      C1681   1.084       .  S
C1225      C1690   1.400       .  A
C1225      C1230   1.415       .  A
C1226      C1689   1.400   1_545  A
C1226      C1227   1.399       .  A
C1226      H1235   1.084       .  S
C1227      C1228   1.416       .  A
C1227      S1231   1.802       .  S
C1228      C1693   1.399   1_545  A
C1229      C1692   1.399       .  A
C1229      C1230   1.396       .  A
C1229      H1236   1.082       .  S
C1230      S1232   1.802       .  S
S1231      H1234   1.405       .  S
S1232      H1233   1.404       .  S
C1237      C1238   1.407       .  A
C1237      C1242   1.412       .  A
C1238      C1239   1.400       .  A
C1238      H1247   1.081       .  S
C1239      C1240   1.413       .  A
C1239      S1243   1.811       .  S
C1240      C1241   1.406       .  A
C1241      C1242   1.394       .  A
C1241      H1248   1.082       .  S
C1242      S1244   1.804       .  S
S1243      H1246   1.407       .  S
S1244      H1245   1.408       .  S
C1249      C1250   1.400       .  A
C1249      C1254   1.416       .  A
C1250      C1251   1.397       .  A
C1250      H1259   1.084       .  S
C1251      C1252   1.422       .  A
C1251      S1255   1.803       .  S
C1252      C1253   1.403       .  A
C1253      C1254   1.397       .  A
C1253      H1260   1.084       .  S
C1254      S1256   1.800       .  S
S1255      H1258   1.403       .  S
S1256      H1257   1.404       .  S
C1261      C1262   1.400       .  A
C1261      C1266   1.413       .  A
C1262      C1263   1.388       .  A
C1262      H1271   1.085       .  S
C1263      C1264   1.414       .  A
C1263      S1267   1.804       .  S
C1264      C1265   1.407       .  A
C1265      C1266   1.405       .  A
C1265      H1272   1.085       .  S
C1266      S1268   1.803       .  S
S1267      H1270   1.403       .  S
S1268      H1269   1.407       .  S
C1273      C1274   1.407       .  A
C1273      C1742   1.410   1_545  A
C1274      C1275   1.399       .  A
C1274      H1283   1.084       .  S
C1275      C1740   1.413   1_545  A
C1275      S1279   1.804       .  S
C1276      C1739   1.413       .  A
C1276      C1277   1.408       .  A
C1277      C1278   1.396       .  A
C1277      H1284   1.083       .  S
C1278      C1737   1.410       .  A
C1278      S1280   1.803       .  S
S1279      H1282   1.408       .  S
S1280      H1281   1.407       .  S
C1285      C1750   1.403   1_545  A
C1285      C1290   1.412       .  A
C1286      C1749   1.403       .  A
C1286      C1287   1.397       .  A
C1286      H1295   1.083       .  S
C1287      C1288   1.412       .  A
C1287      S1291   1.812       .  S
C1288      C1753   1.404       .  A
C1289      C1752   1.404   1_545  A
C1289      C1290   1.402       .  A
C1289      H1296   1.084       .  S
C1290      S1292   1.803       .  S
S1291      H1294   1.407       .  S
S1292      H1293   1.407       .  S
C1297      C1298   1.403       .  A
C1297      C1302   1.421       .  A
C1298      C1299   1.398       .  A
C1298      H1307   1.084       .  S
C1299      C1300   1.420       .  A
C1299      S1303   1.803       .  S
C1300      C1301   1.403       .  A
C1301      C1302   1.400       .  A
C1301      H1308   1.085       .  S
C1302      S1304   1.802       .  S
S1303      H1306   1.405       .  S
S1304      H1305   1.403       .  S
C1309      C1310   1.402       .  A
C1309      C1314   1.418       .  A
C1310      C1311   1.395       .  A
C1310      H1319   1.083       .  S
C1311      C1312   1.418       .  A
C1311      S1315   1.801       .  S
C1312      C1313   1.405       .  A
C1313      C1314   1.401       .  A
C1313      H1320   1.084       .  S
C1314      S1316   1.802       .  S
S1315      H1318   1.404       .  S
S1316      H1317   1.406       .  S
C1321      C1786   1.403   1_455  A
C1322      C1785   1.403   1_655  A
C1322      C1323   1.396   1_554  A
C1322      H1331   1.084       .  S
C1323      C1324   1.414       .  A
C1323      S1327   1.804       .  S
C1325      C1326   1.394   1_566  A
C1325      H1332   1.084       .  S
C1326      S1328   1.803       .  S
S1327      H1330   1.407       .  S
S1328      H1329   1.407       .  S
C1333      C1334   1.404   1_455  A
C1334      C1335   1.400   1_556  A
C1334      H1343   1.084       .  S
C1335      C1336   1.415       .  A
C1335      S1339   1.802       .  S
C1337      C1338   1.401   1_554  A
C1337      H1344   1.084       .  S
C1338      S1340   1.803       .  S
S1339      H1342   1.407       .  S
S1340      H1341   1.407       .  S
C1345      C1346   1.402       .  A
C1345      C1350   1.417       .  A
C1346      C1347   1.400       .  A
C1346      H1355   1.083       .  S
C1347      C1348   1.414       .  A
C1347      S1351   1.797       .  S
C1348      C1349   1.400       .  A
C1349      C1350   1.399       .  A
C1349      H1356   1.083       .  S
C1350      S1352   1.798       .  S
S1351      H1354   1.407       .  S
S1352      H1353   1.406       .  S
C1357      C1358   1.403       .  A
C1357      C1362   1.420       .  A
C1358      C1359   1.398       .  A
C1358      H1367   1.084       .  S
C1359      C1360   1.416       .  A
C1359      S1363   1.799       .  S
C1360      C1361   1.402       .  A
C1361      C1362   1.400       .  A
C1361      H1368   1.084       .  S
C1362      S1364   1.804       .  S
S1363      H1366   1.405       .  S
S1364      H1365   1.408       .  S
C1369      C1370   1.402       .  A
C1369      C1374   1.414       .  A
C1370      C1835   1.406       .  A
C1370      H1379   1.083       .  S
C1371      C1834   1.406       .  A
C1371      C1372   1.416       .  A
C1371      S1375   1.805       .  S
C1372      C1373   1.400       .  A
C1373      C1838   1.398       .  A
C1373      H1380   1.084       .  S
C1374      C1837   1.398   1_545  A
C1374      S1376   1.797       .  S
S1375      H1378   1.407       .  S
S1376      H1377   1.406       .  S
C1381      C1382   1.407       .  A
C1381      C1850   1.413       .  A
C1382      C1383   1.400   1_545  A
C1382      H1391   1.084       .  S
C1383      C1848   1.413       .  A
C1383      S1387   1.800       .  S
C1384      C1847   1.413       .  A
C1384      C1385   1.407       .  A
C1385      C1386   1.403       .  A
C1385      H1392   1.084       .  S
C1386      C1845   1.413       .  A
C1386      S1388   1.802       .  S
S1387      H1390   1.407       .  S
S1388      H1389   1.407       .  S
O1393     Cr1411   1.986       .  S
O1393      C1401   1.263       .  A
O1394      C1395   1.263       .  A
C1395      O1396   1.259       .  A
C1395      C1848   1.486       .  S
O1396     Cr1412   1.983       .  S
O1397     Cr1412   1.998       .  S
C1398      O1399   1.257       .  A
C1398      C1788   1.469       .  S
O1399     Cr1413   1.964       .  S
O1400     Cr1413   2.005       .  S
O1400      C1401   1.265       .  A
C1401      C1836   1.481       .  S
O1402     Cr1411   2.001       .  S
O1402      C1410   1.263       .  A
O1403      C1404   1.263       .  A
C1404      O1405   1.267       .  A
C1404      C1812   1.478       .  S
O1405     Cr1412   2.004       .  S
O1406     Cr1412   1.972       .  S
C1407      O1408   1.264   1_455  A
C1407      C1797   1.484       .  S
O1408     Cr1413   2.007       .  S
O1409     Cr1413   1.979       .  S
O1409      C1410   1.262       .  A
C1410      C1821   1.485       .  S
Cr1411     O1414   1.776       .  S
Cr1413     O1414   1.777       .  S
O1415     Cr1433   1.989       .  S
O1415      C1423   1.263       .  A
O1416     Cr1433   1.999       .  S
O1416      C1417   1.263       .  A
C1417      O1418   1.262       .  A
C1417      C1824   1.484       .  S
O1418     Cr1434   1.987       .  S
O1419     Cr1434   2.002       .  S
O1419      C1420   1.262       .  A
C1420      O1421   1.261       .  A
C1420      C1773   1.486       .  S
O1421     Cr1435   1.976       .  S
O1422     Cr1435   1.998       .  S
O1422      C1423   1.263       .  A
C1423      C1833   1.480       .  S
O1424     Cr1433   1.996       .  S
O1424      C1432   1.263       .  A
O1425     Cr1433   1.990       .  S
O1425      C1426   1.264       .  A
C1426      O1427   1.264       .  A
C1426      C1809   1.482       .  S
O1427     Cr1434   1.997       .  S
O1428     Cr1434   1.983       .  S
O1428      C1429   1.262       .  A
C1429      O1430   1.260       .  A
C1429      C1761   1.489       .  S
O1430     Cr1435   1.998       .  S
O1431     Cr1435   1.993       .  S
O1431      C1432   1.264       .  A
C1432      C1845   1.485       .  S
Cr1433     O1436   1.776       .  S
Cr1434     O1436   1.776       .  S
Cr1435     O1436   1.772       .  S
O1437     Cr1455   1.991       .  S
O1437      C1445   1.263       .  A
O1438     Cr1455   1.986       .  S
O1438      C1439   1.261       .  A
C1439      O1440   1.262       .  A
C1439      C1752   1.472       .  S
O1440     Cr1456   1.990       .  S
O1441     Cr1456   1.991       .  S
O1441      C1442   1.263       .  A
C1442      O1443   1.260       .  A
C1442      C1689   1.472       .  S
O1443     Cr1457   1.990       .  S
O1444     Cr1457   1.984       .  S
O1444      C1445   1.263       .  A
C1445      C1740   1.482       .  S
O1446     Cr1455   1.988       .  S
O1446      C1454   1.261       .  A
O1447     Cr1455   1.993       .  S
O1447      C1448   1.262       .  A
C1448      O1449   1.263       .  A
C1448      C1713   1.480       .  S
O1449     Cr1456   1.986       .  S
O1450     Cr1456   1.991       .  S
O1450      C1451   1.263       .  A
C1451      O1452   1.260       .  A
C1451      C1701   1.477       .  S
O1452     Cr1457   1.974       .  S
O1453     Cr1457   1.986       .  S
O1453      C1454   1.261       .  A
C1454      C1728   1.476       .  S
Cr1455     O1458   1.769       .  S
Cr1456     O1458   1.769       .  S
Cr1457     O1458   1.768       .  S
O1459     Cr1477   1.990       .  S
O1459      C1467   1.261       .  A
O1460     Cr1477   1.988       .  S
O1460      C1461   1.262       .  A
C1461      O1462   1.262       .  A
C1461      C1749   1.472       .  S
O1462     Cr1478   1.988       .  S
O1463     Cr1478   1.990       .  S
O1463      C1464   1.264       .  A
C1464      O1465   1.261       .  A
C1464      C1764   1.488       .  S
O1465     Cr1479   1.996       .  S
O1466     Cr1479   1.984       .  S
O1466      C1467   1.264       .  A
C1467      C1716   1.484       .  S
O1468      C1476   1.262       .  A
O1469      C1470   1.262       .  A
C1470      O1471   1.263       .  A
C1470      C1737   1.476       .  S
O1472      C1473   1.263       .  A
C1473      O1474   1.262       .  A
C1473      C1776   1.486       .  S
O1475      C1476   1.261       .  A
C1476      C1725   1.472       .  S
Cr1477     O1480   1.770       .  S
Cr1478     O1480   1.766       .  S
Cr1479     O1480   1.766       .  S
O1481     Cr1499   1.980       .  S
O1481      C1489   1.259       .  A
O1482     Cr1499   2.000       .  S
O1482      C1483   1.268       .  A
C1483      O1484   1.259       .  A
C1483      C1677   1.490       .  S
O1484     Cr1500   1.979       .  S
O1485     Cr1500   1.996       .  S
O1485      C1486   1.262       .  A
C1486      O1487   1.263       .  A
C1486      C1692   1.472       .  S
O1487     Cr1501   1.987       .  S
O1488     Cr1501   2.009       .  S
O1488      C1489   1.265       .  A
C1489      C1665   1.470       .  S
O1490     Cr1499   2.006       .  S
O1490      C1498   1.264       .  A
O1491     Cr1499   1.978       .  S
O1491      C1492   1.259       .  A
C1492      O1493   1.265       .  A
C1492      C1641   1.487       .  S
O1493     Cr1500   1.999       .  S
O1494     Cr1500   1.970       .  S
O1494      C1495   1.259       .  A
C1495      O1496   1.265       .  A
C1495      C1704   1.478       .  S
O1496     Cr1501   2.000       .  S
O1497     Cr1501   1.978       .  S
O1497      C1498   1.261       .  A
C1498      C1656   1.491       .  S
Cr1499     O1502   1.765       .  S
Cr1500     O1502   1.765       .  S
Cr1501     O1502   1.763       .  S
O1503      C1511   1.266       .  A
O1504      C1505   1.258       .  A
C1505      O1506   1.265       .  A
C1505      C1653   1.475       .  S
O1507      C1508   1.261       .  A
C1508      O1509   1.267       .  A
C1508      C1632   1.488       .  S
O1510      C1511   1.260       .  A
C1511      C1668   1.473       .  S
O1512     Cr1521   1.981       .  S
O1512      C1520   1.260       .  A
O1513     Cr1521   2.007       .  S
O1513      C1514   1.266       .  A
C1514      O1515   1.260       .  A
C1514      C1644   1.470       .  S
O1515     Cr1522   1.978       .  S
O1516     Cr1522   2.013       .  S
O1516      C1517   1.264       .  A
C1517      O1518   1.260       .  A
C1517      C1620   1.495       .  S
O1518     Cr1523   1.979       .  S
O1519     Cr1523   2.000       .  S
O1519      C1520   1.265       .  A
C1520      C1680   1.481       .  S
Cr1521     O1524   1.774       .  S
Cr1522     O1524   1.770       .  S
Cr1523     O1524   1.766       .  S
O1525     Cr1543   2.013   1_655  S
O1525      C1533   1.268       .  A
O1526      C1527   1.262       .  A
C1527      O1528   1.268       .  A
C1527      C1605   1.479       .  S
O1528     Cr1544   2.010       .  S
O1529     Cr1544   1.967       .  S
C1530      O1531   1.260   1_455  A
C1530      C1785   1.468       .  S
O1531     Cr1545   1.992       .  S
O1532     Cr1545   1.986       .  S
O1532      C1533   1.262       .  A
C1533      C1593   1.497       .  S
O1534     Cr1543   1.996   1_655  S
O1534      C1542   1.262       .  A
O1535      C1536   1.262       .  A
C1536      O1537   1.259       .  A
C1536      C1569   1.475       .  S
O1537     Cr1544   1.980       .  S
O1538     Cr1544   2.012       .  S
C1539      O1540   1.262       .  A
C1539      C1800   1.484       .  S
O1540     Cr1545   1.978       .  S
O1541     Cr1545   1.994       .  S
O1541      C1542   1.263       .  A
C1542      C1584   1.476       .  S
Cr1543     O1546   1.774       .  S
Cr1545     O1546   1.772   1_655  S
O1547     Cr1565   2.001       .  S
O1547      C1555   1.263       .  A
O1548     Cr1565   1.982       .  S
O1548      C1549   1.262       .  A
C1549      O1550   1.267       .  A
C1549      C1608   1.488       .  S
O1550     Cr1566   2.011       .  S
O1551     Cr1566   1.980       .  S
O1551      C1552   1.260       .  A
C1552      O1553   1.263       .  A
C1552      C1617   1.481       .  S
O1553     Cr1567   2.001       .  S
O1554     Cr1567   1.982       .  S
O1554      C1555   1.261       .  A
C1555      C1572   1.475       .  S
O1556     Cr1565   1.991       .  S
O1556      C1564   1.263       .  A
O1557     Cr1565   1.998       .  S
O1557      C1558   1.263       .  A
C1558      O1559   1.261       .  A
C1558      C1596   1.500       .  S
O1559     Cr1566   1.990       .  S
O1560     Cr1566   2.003       .  S
O1560      C1561   1.265       .  A
C1561      O1562   1.259       .  A
C1561      C1629   1.486       .  S
O1562     Cr1567   1.978       .  S
O1563     Cr1567   1.993       .  S
O1563      C1564   1.264       .  A
C1564      C1581   1.485       .  S
Cr1565     O1568   1.777       .  S
Cr1566     O1568   1.777       .  S
Cr1567     O1568   1.778       .  S
C1569      C1570   1.402       .  A
C1569      C1574   1.415       .  A
C1570      C1571   1.400       .  A
C1570      H1579   1.084       .  S
C1571      C1572   1.413       .  A
C1571      S1575   1.800       .  S
C1572      C1573   1.402       .  A
C1573      C1574   1.399       .  A
C1573      H1580   1.084       .  S
C1574      S1576   1.804       .  S
S1575      H1578   1.406       .  S
S1576      H1577   1.406       .  S
C1581      C1582   1.405       .  A
C1581      C1586   1.417       .  A
C1582      C1583   1.397       .  A
C1582      H1591   1.082       .  S
C1583      C1584   1.410       .  A
C1583      S1587   1.811       .  S
C1584      C1585   1.405       .  A
C1585      C1586   1.407       .  A
C1585      H1592   1.083       .  S
C1586      S1588   1.802       .  S
S1587      H1590   1.406       .  S
S1588      H1589   1.407       .  S
C1593      C1598   1.417       .  A
C1594      C1595   1.404   1_545  A
C1594      H1603   1.083       .  S
C1595      C1596   1.418       .  A
C1595      S1599   1.802       .  S
C1597      C1598   1.401       .  A
C1597      H1604   1.083       .  S
C1598      S1600   1.802       .  S
S1599      H1602   1.408       .  S
S1600      H1601   1.408       .  S
C1605      C1606   1.402       .  A
C1606      C1607   1.401       .  A
C1606      H1615   1.084       .  S
C1607      S1611   1.799       .  S
C1608      C1609   1.406       .  A
C1609      C1610   1.402       .  A
C1609      H1616   1.084       .  S
C1610      S1612   1.801       .  S
C1617      C1618   1.403       .  A
C1617      C1622   1.411       .  A
C1618      C1619   1.402       .  A
C1618      H1627   1.085       .  S
C1619      C1620   1.421       .  A
C1619      S1623   1.802       .  S
C1620      C1621   1.409       .  A
C1621      C1622   1.399       .  A
C1621      H1628   1.082       .  S
C1622      S1624   1.803       .  S
S1623      H1626   1.408       .  S
S1624      H1625   1.407       .  S
C1629      C1630   1.405       .  A
C1629      C1634   1.415       .  A
C1630      C1631   1.399       .  A
C1630      H1639   1.083       .  S
C1631      C1632   1.417       .  A
C1631      S1635   1.801       .  S
C1632      C1633   1.407       .  A
C1633      C1634   1.400       .  A
C1633      H1640   1.084       .  S
C1634      S1636   1.800       .  S
S1635      H1638   1.406       .  S
S1636      H1637   1.408       .  S
C1641      C1642   1.408       .  A
C1641      C1646   1.419       .  A
C1642      C1643   1.399       .  A
C1642      H1651   1.082       .  S
C1643      C1644   1.408       .  A
C1643      S1647   1.809       .  S
C1644      C1645   1.400       .  A
C1645      C1646   1.400       .  A
C1645      H1652   1.084       .  S
C1646      S1648   1.802       .  S
S1647      H1650   1.407       .  S
S1648      H1649   1.408       .  S
C1653      C1654   1.401       .  A
C1653      C1658   1.412       .  A
C1654      C1655   1.398       .  A
C1654      H1663   1.085       .  S
C1655      C1656   1.420       .  A
C1655      S1659   1.802       .  S
C1656      C1657   1.409       .  A
C1657      C1658   1.398       .  A
C1657      H1664   1.084       .  S
C1658      S1660   1.803       .  S
S1659      H1662   1.406       .  S
S1660      H1661   1.406       .  S
C1665      C1666   1.402       .  A
C1666      C1667   1.398       .  A
C1666      H1675   1.084       .  S
C1667      S1671   1.802       .  S
C1668      C1669   1.404       .  A
C1669      C1670   1.403       .  A
C1669      H1676   1.084       .  S
C1670      S1672   1.808       .  S
C1677      C1678   1.406       .  A
C1677      C1682   1.420       .  A
C1678      H1687   1.083       .  S
C1679      C1680   1.411       .  A
C1679      S1683   1.799       .  S
C1681      C1682   1.404       .  A
C1682      S1684   1.801       .  S
S1683      H1686   1.405       .  S
S1684      H1685   1.408       .  S
C1689      C1694   1.416       .  A
C1690      C1691   1.399       .  A
C1690      H1699   1.084       .  S
C1691      C1692   1.416       .  A
C1691      S1695   1.802       .  S
C1693      C1694   1.396       .  A
C1693      H1700   1.082       .  S
C1694      S1696   1.802       .  S
S1695      H1698   1.405       .  S
S1696      H1697   1.404       .  S
C1701      C1702   1.407       .  A
C1701      C1706   1.412       .  A
C1702      C1703   1.400       .  A
C1702      H1711   1.081       .  S
C1703      C1704   1.413       .  A
C1703      S1707   1.811       .  S
C1704      C1705   1.406       .  A
C1705      C1706   1.394       .  A
C1705      H1712   1.082       .  S
C1706      S1708   1.804       .  S
S1707      H1710   1.407       .  S
S1708      H1709   1.408       .  S
C1713      C1714   1.400       .  A
C1713      C1718   1.416       .  A
C1714      C1715   1.397       .  A
C1714      H1723   1.084       .  S
C1715      C1716   1.422       .  A
C1715      S1719   1.803       .  S
C1716      C1717   1.403       .  A
C1717      C1718   1.397       .  A
C1717      H1724   1.084       .  S
C1718      S1720   1.800       .  S
S1719      H1722   1.403       .  S
S1720      H1721   1.404       .  S
C1725      C1726   1.400       .  A
C1725      C1730   1.413       .  A
C1726      C1727   1.388       .  A
C1726      H1735   1.085       .  S
C1727      C1728   1.414       .  A
C1727      S1731   1.804       .  S
C1728      C1729   1.407       .  A
C1729      C1730   1.405       .  A
C1729      H1736   1.085       .  S
C1730      S1732   1.803       .  S
S1731      H1734   1.403       .  S
S1732      H1733   1.407       .  S
C1737      C1738   1.407       .  A
C1738      C1739   1.399       .  A
C1738      H1747   1.084       .  S
C1739      S1743   1.804       .  S
C1740      C1741   1.408       .  A
C1741      C1742   1.396       .  A
C1741      H1748   1.083       .  S
C1742      S1744   1.803       .  S
S1743      H1746   1.408       .  S
S1744      H1745   1.407       .  S
C1749      C1754   1.412       .  A
C1750      C1751   1.397       .  A
C1750      H1759   1.083       .  S
C1751      C1752   1.412       .  A
C1751      S1755   1.812       .  S
C1753      C1754   1.402       .  A
C1753      H1760   1.084       .  S
C1754      S1756   1.803       .  S
S1755      H1758   1.407       .  S
S1756      H1757   1.407       .  S
C1761      C1762   1.403       .  A
C1761      C1766   1.421       .  A
C1762      C1763   1.398       .  A
C1762      H1771   1.084       .  S
C1763      C1764   1.420       .  A
C1763      S1767   1.803       .  S
C1764      C1765   1.403       .  A
C1765      C1766   1.400       .  A
C1765      H1772   1.085       .  S
C1766      S1768   1.802       .  S
S1767      H1770   1.405       .  S
S1768      H1769   1.403       .  S
C1773      C1774   1.402       .  A
C1773      C1778   1.418       .  A
C1774      C1775   1.395       .  A
C1774      H1783   1.083       .  S
C1775      C1776   1.418       .  A
C1775      S1779   1.801       .  S
C1776      C1777   1.405       .  A
C1777      C1778   1.401       .  A
C1777      H1784   1.084       .  S
C1778      S1780   1.802       .  S
S1779      H1782   1.404       .  S
S1780      H1781   1.406       .  S
C1786      C1787   1.396   1_544  A
C1786      H1795   1.084       .  S
C1787      C1788   1.414       .  A
C1787      S1791   1.804       .  S
C1789      C1790   1.394   1_556  A
C1789      H1796   1.084       .  S
C1790      S1792   1.803       .  S
S1791      H1794   1.407       .  S
S1792      H1793   1.407       .  S
C1797      C1798   1.404   1_455  A
C1798      C1799   1.400   1_556  A
C1798      H1807   1.084       .  S
C1799      C1800   1.415       .  A
C1799      S1803   1.802       .  S
C1801      C1802   1.401   1_554  A
C1801      H1808   1.084       .  S
C1802      S1804   1.804       .  S
S1803      H1806   1.407       .  S
S1804      H1805   1.407       .  S
C1809      C1810   1.402       .  A
C1809      C1814   1.417       .  A
C1810      C1811   1.400       .  A
C1810      H1819   1.083       .  S
C1811      C1812   1.414       .  A
C1811      S1815   1.797       .  S
C1812      C1813   1.400       .  A
C1813      C1814   1.399       .  A
C1813      H1820   1.083       .  S
C1814      S1816   1.798       .  S
S1815      H1818   1.407       .  S
S1816      H1817   1.406       .  S
C1821      C1822   1.403       .  A
C1821      C1826   1.420       .  A
C1822      C1823   1.398       .  A
C1822      H1831   1.084       .  S
C1823      C1824   1.416       .  A
C1823      S1827   1.799       .  S
C1824      C1825   1.402       .  A
C1825      C1826   1.400       .  A
C1825      H1832   1.084       .  S
C1826      S1828   1.804       .  S
S1827      H1830   1.405       .  S
S1828      H1829   1.408       .  S
C1833      C1834   1.402       .  A
C1833      C1838   1.414       .  A
C1834      H1843   1.083       .  S
C1835      C1836   1.416   1_545  A
C1835      S1839   1.805   1_545  S
C1836      C1837   1.400       .  A
C1837      H1844   1.084       .  S
C1838      S1840   1.797       .  S
S1839      H1842   1.407   1_565  S
S1840      H1841   1.406       .  S
C1845      C1846   1.407       .  A
C1846      C1847   1.400       .  A
C1846      H1855   1.084       .  S
C1847      S1851   1.800       .  S
C1848      C1849   1.407       .  A
C1849      C1850   1.402   1_565  A
C1849      H1856   1.084       .  S
C1850      S1852   1.802       .  S
S1851      H1854   1.407       .  S
S1852      H1853   1.407       .  S
