geometry optimzed in LAMMPS
_audit_creation_date              2020-11-30 
_audit_creation_method            'lammps2cif' 
_symmetry_space_group_name_H-M    'P1' 
_symmetry_Int_Tables_number       1 
_symmetry_cell_setting            triclinic 
loop_ 
_symmetry_equiv_pos_as_xyz 
  x,y,z 
_cell_length_a                    43.17601836 
_cell_length_b                    43.338014231891435 
_cell_length_c                    43.37711510775655 
_cell_angle_alpha                 90.68430580249519 
_cell_angle_beta                  89.68493080410583 
_cell_angle_gamma                 90.41426585421212 
loop_ 
_atom_site_label 
_atom_site_type_symbol 
_atom_site_fract_x 
_atom_site_fract_y 
_atom_site_fract_z 
_atom_site_charge 
C1          C  0.13793377  0.72624729  0.34986848     0.85800
C2          C  0.14635622  0.71374218  0.38169885    -0.54400
C3          C  0.14608540  0.73532636  0.40483677     0.08700
C4          C  0.14002155  0.76814701  0.39380491     0.19700
C5          C  0.10795452  0.74385953  0.35413531    -0.55200
C6          C  0.10880042  0.76562321  0.37673618     0.08800
C7          C  0.16269352  0.75162144  0.34478967    -0.54700
C8          C  0.16493944  0.77329009  0.36809251     0.09400
H9          H  0.15191619  0.68987546  0.38600461     0.13900
H10         H  0.14003872  0.78535548  0.41291534    -0.00400
H11         H  0.08779303  0.74008836  0.33961309     0.14200
H12         H  0.17736166  0.75205582  0.32458641     0.14000
C13         C  0.81785420  0.14320474  0.60150226     0.85800
C14         C  0.80000564  0.14315227  0.57098712    -0.54400
C15         C  0.77832654  0.12037410  0.56822558     0.08700
C16         C  0.77597971  0.09908656  0.59640242     0.19700
C17         C  0.79269752  0.14395910  0.62685576    -0.55200
C18         C  0.77077327  0.12088934  0.62453661     0.08800
C19         C  0.83082020  0.11019884  0.60304605    -0.54700
C20         C  0.80906417  0.08737345  0.60035234     0.09400
H21         H  0.80449656  0.15957555  0.55273850     0.13900
H22         H  0.75848294  0.08029520  0.59412908    -0.00400
H23         H  0.79270435  0.16090995  0.64549837     0.14200
H24         H  0.85507723  0.10436097  0.60442833     0.14000
C25         C  0.40919516  0.11319551  0.72144717     0.85800
C26         C  0.40996974  0.08124798  0.73605932    -0.54400
C27         C  0.43260603  0.07731711  0.75736307     0.08700
C28         C  0.45286515  0.10647502  0.76311880     0.19700
C29         C  0.40705372  0.13585700  0.74926601    -0.55200
C30         C  0.42940372  0.13250962  0.77138874     0.08800
C31         C  0.44231954  0.11924664  0.70961870    -0.54700
C32         C  0.46521469  0.11497491  0.73089717     0.09400
H33         H  0.39326410  0.06320162  0.73041048     0.13900
H34         H  0.47123255  0.10332924  0.78060330    -0.00400
H35         H  0.39056401  0.15453870  0.75078945     0.14200
H36         H  0.44754593  0.12673392  0.68641456     0.14000
C37         C  0.14044308  0.64390514  0.70784330     0.85800
C38         C  0.10827394  0.64574674  0.72313828    -0.54400
C39         C  0.10186659  0.62215051  0.74270849     0.08700
C40         C  0.12857607  0.59920304  0.74642393     0.19700
C41         C  0.16305944  0.64258088  0.73505816    -0.55200
C42         C  0.15678283  0.61940218  0.75523633     0.08800
C43         C  0.14221103  0.61132848  0.69361780    -0.54700
C44         C  0.13571261  0.58815485  0.71367840     0.09400
H45         H  0.09195013  0.66412024  0.71873322     0.13900
H46         H  0.12370686  0.58021397  0.76278038    -0.00400
H47         H  0.18354538  0.65682544  0.73776982     0.14200
H48         H  0.14753980  0.60695279  0.66946669     0.14000
C49         C  0.63866221  0.78213417  0.12468530     0.85800
C50         C  0.60850934  0.76301133  0.12453599    -0.54400
C51         C  0.60539225  0.74370727  0.09975411     0.08700
C52         C  0.63373429  0.74296879  0.07817500     0.19700
C53         C  0.66396542  0.75688281  0.12383057    -0.55200
C54         C  0.66134577  0.73629741  0.09957511     0.08800
C55         C  0.64046151  0.79687628  0.09276669    -0.54700
C56         C  0.63808636  0.77654831  0.06861092     0.09400
H57         H  0.59149676  0.76324981  0.14298815     0.13900
H58         H  0.63151610  0.72649359  0.05847541    -0.00400
H59         H  0.68200287  0.75509066  0.14103663     0.14200
H60         H  0.64241011  0.82160336  0.08954950     0.14000
C61         C  0.75672367  0.37476227  0.10232614     0.85800
C62         C  0.77396011  0.37421060  0.07129299    -0.54400
C63         C  0.79624358  0.39636242  0.06825161     0.08700
C64         C  0.79989675  0.41757174  0.09702016     0.19700
C65         C  0.78220382  0.37310658  0.12686447    -0.55200
C66         C  0.80492558  0.39534613  0.12467295     0.08800
C67         C  0.74486510  0.40804775  0.10473734    -0.54700
C68         C  0.76699238  0.43035595  0.10189177     0.09400
H69         H  0.76833997  0.35812304  0.05271726     0.13900
H70         H  0.81800867  0.43572078  0.09461736    -0.00400
H71         H  0.78203532  0.35584724  0.14480749     0.14200
H72         H  0.72066946  0.41435934  0.10554654     0.14000
C73         C  0.14935504  0.74184828  0.61432847     0.85800
C74         C  0.15385576  0.72673541  0.58252627    -0.54400
C75         C  0.14765228  0.74515521  0.55822437     0.08700
C76         C  0.13804128  0.77802866  0.56749699     0.19700
C77         C  0.17052213  0.77072986  0.61298149    -0.55200
C78         C  0.16465489  0.78956947  0.58854238     0.08800
C79         C  0.11659073  0.75537101  0.61404165    -0.54700
C80         C  0.11033271  0.77356074  0.58965836     0.09400
H81         H  0.15965251  0.70248996  0.57950818     0.13900
H82         H  0.13326422  0.79327686  0.54770440    -0.00400
H83         H  0.18901597  0.77663555  0.62852006     0.14200
H84         H  0.09966819  0.75107948  0.63217699     0.14000
C85         C  0.75768300  0.10457289  0.36292728     0.85800
C86         C  0.78370364  0.12856552  0.35727226    -0.54400
C87         C  0.80577799  0.13032156  0.37983877     0.08700
C88         C  0.80059928  0.10596343  0.40543330     0.19700
C89         C  0.77467508  0.07421695  0.36634652    -0.55200
C90         C  0.79704948  0.07479252  0.38818255     0.08800
C91         C  0.74596512  0.11352343  0.39523250    -0.54700
C92         C  0.76806837  0.11296259  0.41756392     0.09400
H93         H  0.78449615  0.14302077  0.33725756     0.13900
H94         H  0.81840783  0.10599424  0.42378855    -0.00400
H95         H  0.77025967  0.05417534  0.35166811     0.14200
H96         H  0.72231082  0.12010218  0.40035027     0.14000
C97         C  0.65765139  0.13794929  0.77088992     0.85800
C98         C  0.65989521  0.10488640  0.78270984    -0.54400
C99         C  0.65425060  0.08239853  0.76126129     0.08700
C100        C  0.64876519  0.09491683  0.72865784     0.19700
C101        C  0.68168235  0.13857353  0.74452685    -0.55200
C102        C  0.67779880  0.11586181  0.72252925     0.08800
C103        C  0.62668279  0.14014368  0.75421331    -0.54700
C104        C  0.62127626  0.11750962  0.73306591     0.09400
H105        H  0.66527856  0.09950630  0.80646121     0.13900
H106        H  0.64480488  0.07661279  0.71095698    -0.00400
H107        H  0.70083883  0.15469624  0.74307852     0.14200
H108        H  0.60993292  0.15815298  0.75922746     0.14000
C109        C  0.16116597  0.39781808  0.75648344     0.85800
C110        C  0.12892232  0.39278193  0.77085856    -0.54400
C111        C  0.10479687  0.39819079  0.75158801     0.08700
C112        C  0.11473934  0.40849348  0.71924384     0.19700
C113        C  0.16110581  0.37760633  0.72724873    -0.55200
C114        C  0.13706079  0.38308998  0.70766063     0.08800
C115        C  0.15975096  0.43131628  0.74472595    -0.54700
C116        C  0.13585798  0.43682970  0.72502297     0.09400
H117        H  0.12500832  0.38793577  0.79507125     0.13900
H118        H  0.09514042  0.41283190  0.70342491    -0.00400
H119        H  0.17841720  0.36006215  0.72261612     0.14200
H120        H  0.17655482  0.44908782  0.75077488     0.14000
C121        C  0.39976477  0.71870395  0.09041203     0.85800
C122        C  0.43272652  0.70667848  0.09432112    -0.54400
C123        C  0.45511141  0.72896423  0.09327692     0.08700
C124        C  0.44248348  0.76183279  0.08959705     0.19700
C125        C  0.39693855  0.74248661  0.11698619    -0.55200
C126        C  0.41868586  0.76589563  0.11667037     0.08800
C127        C  0.40028265  0.73760063  0.06102543    -0.54700
C128        C  0.42257335  0.75970074  0.06027273     0.09400
H129        H  0.43829525  0.68260718  0.09783952     0.13900
H130        H  0.46078731  0.77981900  0.08808542    -0.00400
H131        H  0.38012491  0.73952586  0.13533346     0.14200
H132        H  0.38421504  0.73369721  0.04213616     0.14000
C133        C  0.80060034  0.62240425  0.11842529     0.85800
C134        C  0.81515026  0.62516299  0.08611640    -0.54400
C135        C  0.79519827  0.61990410  0.06235606     0.08700
C136        C  0.76208737  0.61157637  0.07290354     0.19700
C137        C  0.77273358  0.64391668  0.11842061    -0.55200
C138        C  0.75247221  0.63878347  0.09480849     0.08800
C139        C  0.78688385  0.58967166  0.11796137    -0.54700
C140        C  0.76706870  0.58367482  0.09441402     0.09400
H141        H  0.83975959  0.62819618  0.08188362     0.13900
H142        H  0.74581526  0.60703355  0.05364876    -0.00400
H143        H  0.76964848  0.66232811  0.13535740     0.14200
H144        H  0.79272156  0.57218223  0.13465852     0.14000
C145        C  0.39262775  0.72718414  0.87949516     0.85800
C146        C  0.39398028  0.74186539  0.91192633    -0.54400
C147        C  0.41740845  0.76283174  0.91596075     0.08700
C148        C  0.43737477  0.76814047  0.88698026     0.19700
C149        C  0.39071099  0.75529651  0.85764694    -0.55200
C150        C  0.41419258  0.77676886  0.86135207     0.08800
C151        C  0.42545851  0.71498310  0.87318992    -0.54700
C152        C  0.44870097  0.73595374  0.87802017     0.09400
H153        H  0.37759392  0.73622927  0.93013607     0.13900
H154        H  0.45635588  0.78527095  0.89037866    -0.00400
H155        H  0.37358258  0.75750947  0.83965882     0.14200
H156        H  0.43021287  0.69109840  0.86705151     0.14000
C157        C  0.79780763  0.62051080  0.85335693     0.85800
C158        C  0.78474788  0.58739383  0.85507296    -0.54400
C159        C  0.76671920  0.58183586  0.88034058     0.08700
C160        C  0.76241435  0.60996286  0.90168385     0.19700
C161        C  0.76843828  0.64078721  0.85521847    -0.55200
C162        C  0.75019192  0.63528420  0.88057405     0.08800
C163        C  0.81352436  0.62622562  0.88462928    -0.54700
C164        C  0.79515422  0.62053724  0.90958739     0.09400
H165        H  0.78882113  0.57002282  0.83726412     0.13900
H166        H  0.74747400  0.60544220  0.92209499    -0.00400
H167        H  0.76174408  0.65816092  0.83905207     0.14200
H168        H  0.83783947  0.63255483  0.88684750     0.14000
C169        C  0.89414905  0.40209570  0.76368320     0.85800
C170        C  0.89570022  0.43471079  0.74967858    -0.54400
C171        C  0.91961225  0.43886502  0.72928513     0.08700
C172        C  0.94025206  0.41033506  0.72496691     0.19700
C173        C  0.89383492  0.37978913  0.73617650    -0.55200
C174        C  0.91771844  0.38402989  0.71602966     0.08800
C175        C  0.92657446  0.39841929  0.77785060    -0.54700
C176        C  0.95045546  0.40242721  0.75759023     0.09400
H177        H  0.87908273  0.45273611  0.75481611     0.13900
H178        H  0.95970745  0.41348058  0.70839911    -0.00400
H179        H  0.87657371  0.36163475  0.73322831     0.14200
H180        H  0.93078256  0.39475280  0.80218124     0.14000
C181        C  0.64182858  0.87113809  0.76707640     0.85800
C182        C  0.61103868  0.87014233  0.74982903    -0.54400
C183        C  0.60717255  0.89362590  0.72974364     0.08700
C184        C  0.63496200  0.91625683  0.72820503     0.19700
C185        C  0.66668872  0.87195201  0.74173355    -0.55200
C186        C  0.66342050  0.89566808  0.72161176     0.08800
C187        C  0.64400464  0.90356946  0.78162399    -0.54700
C188        C  0.64014449  0.92701681  0.76142423     0.09400
H189        H  0.59372524  0.85214575  0.75320371     0.13900
H190        H  0.63201410  0.93566532  0.71205036    -0.00400
H191        H  0.68628344  0.85656275  0.74024696     0.14200
H192        H  0.64825760  0.90776200  0.80591750     0.14000
C193        C  0.82087008  0.87137161  0.38705605     0.85800
C194        C  0.80262844  0.87142146  0.41754143    -0.54400
C195        C  0.78098700  0.89413071  0.42022289     0.08700
C196        C  0.77935106  0.91542960  0.39201464     0.19700
C197        C  0.79614782  0.87070762  0.36168486    -0.55200
C198        C  0.77437250  0.89359095  0.36367615     0.08800
C199        C  0.83409924  0.90460285  0.38563782    -0.54700
C200        C  0.81264019  0.92734899  0.38847951     0.09400
H201        H  0.80702652  0.85534207  0.43598439     0.13900
H202        H  0.76209056  0.93418293  0.39434371    -0.00400
H203        H  0.79612507  0.85333011  0.34352201     0.14200
H204        H  0.85825821  0.91096196  0.38392927     0.14000
C205        C  0.90128421  0.78614693  0.59425497     0.85800
C206        C  0.93377459  0.80044092  0.59672222    -0.54400
C207        C  0.95749059  0.77981412  0.59470636     0.08700
C208        C  0.94686762  0.74616360  0.59072806     0.19700
C209        C  0.90235747  0.76701722  0.56399655    -0.55200
C210        C  0.92638287  0.74685661  0.56187749     0.08800
C211        C  0.90031606  0.76127859  0.61946672    -0.54700
C212        C  0.92408192  0.74037139  0.61792082     0.09400
H213        H  0.93773607  0.82519562  0.59857144     0.13900
H214        H  0.96615850  0.72938684  0.58916962    -0.00400
H215        H  0.88569481  0.76818159  0.54557006     0.14200
H216        H  0.88223325  0.76015990  0.63692415     0.14000
C217        C  0.64190343  0.77329412  0.85953295     0.85800
C218        C  0.64685311  0.78764788  0.89158689    -0.54400
C219        C  0.63953020  0.76883609  0.91542909     0.08700
C220        C  0.62881609  0.73648280  0.90540466     0.19700
C221        C  0.66207773  0.74418447  0.86012491    -0.55200
C222        C  0.65503304  0.72474953  0.88388284     0.08800
C223        C  0.60864165  0.76094308  0.85958087    -0.54700
C224        C  0.60159212  0.74241174  0.88352006     0.09400
H225        H  0.65377722  0.81160776  0.89514196     0.13900
H226        H  0.62321150  0.72084685  0.92479698    -0.00400
H227        H  0.68129023  0.73922151  0.84487117     0.14200
H228        H  0.59199641  0.76623993  0.84170844     0.14000
C229        C  0.80107764  0.39897373  0.86164380     0.85800
C230        C  0.81737787  0.39831081  0.89304748    -0.54400
C231        C  0.79834917  0.40316117  0.91776657     0.08700
C232        C  0.76464574  0.40943914  0.90925941     0.19700
C233        C  0.77406544  0.37598287  0.86440475    -0.55200
C234        C  0.75507218  0.38126915  0.88926872     0.08800
C235        C  0.78580856  0.43087894  0.86180206    -0.54700
C236        C  0.76687075  0.43638271  0.88641211     0.09400
H237        H  0.84215607  0.39555124  0.89588570     0.13900
H238        H  0.74913240  0.41375560  0.92934150    -0.00400
H239        H  0.77048455  0.35690627  0.84831721     0.14200
H240        H  0.78953748  0.44798313  0.84405200     0.14000
C241        C  0.89477380  0.62216480  0.75554843     0.85800
C242        C  0.92697949  0.62678659  0.76956413    -0.54400
C243        C  0.95096648  0.62258852  0.74947800     0.08700
C244        C  0.94079675  0.61482155  0.71632977     0.19700
C245        C  0.89456907  0.64521968  0.72865519    -0.55200
C246        C  0.91865966  0.64177703  0.70815116     0.08800
C247        C  0.89553450  0.59039783  0.73969806    -0.54700
C248        C  0.91964473  0.58595686  0.71988029     0.09400
H249        H  0.93058880  0.63156479  0.79395896     0.13900
H250        H  0.96038173  0.61164493  0.69991951    -0.00400
H251        H  0.87818331  0.66381662  0.72631255     0.14200
H252        H  0.87840997  0.57250231  0.74428870     0.14000
C253        C  0.40191761  0.89267418  0.71977767     0.85800
C254        C  0.43409186  0.88669833  0.70621420    -0.54400
C255        C  0.45797701  0.89053479  0.72628875     0.08700
C256        C  0.44748860  0.89889633  0.75937939     0.19700
C257        C  0.39980166  0.87033611  0.74714697    -0.55200
C258        C  0.42343730  0.87308947  0.76812873     0.08800
C259        C  0.40409341  0.92464006  0.73513073    -0.54700
C260        C  0.42802316  0.92840592  0.75516092     0.09400
H261        H  0.43791172  0.88206900  0.68186257     0.13900
H262        H  0.46669428  0.90220107  0.77596949    -0.00400
H263        H  0.38170284  0.85320922  0.75001955     0.14200
H264        H  0.38777293  0.94296095  0.73046631     0.14000
C265        C  0.75732973  0.90443767  0.62546925     0.85800
C266        C  0.74463668  0.90026519  0.59255192    -0.54400
C267        C  0.76626586  0.90278933  0.56984267     0.08700
C268        C  0.79915637  0.90843632  0.58173647     0.19700
C269        C  0.78264865  0.87959117  0.62711440    -0.55200
C270        C  0.80473411  0.88162478  0.60441573     0.08800
C271        C  0.77484549  0.93515306  0.62535109    -0.54700
C272        C  0.79628561  0.93745756  0.60246974     0.09400
H273        H  0.72075972  0.89485641  0.58695938     0.13900
H274        H  0.81692036  0.91047235  0.56323733    -0.00400
H275        H  0.78255540  0.86128230  0.64397953     0.14200
H276        H  0.77051964  0.95364458  0.64193749     0.14000
O277        O  0.96102079  0.71946485  0.45789274    -0.73600
O278        O  0.96160922  0.65429733  0.52171083    -0.74600
O279        O  0.96417141  0.65451070  0.45651975    -0.63200
O280        O  0.95742517  0.71867030  0.52527714    -0.71700
O281        O  0.90622823  0.71691768  0.52085080    -0.71200
O282        O  0.91300467  0.65217686  0.45638787    -0.62500
O283        O  0.91026350  0.65286563  0.52054254    -0.75000
O284        O  0.90967760  0.71574648  0.45514131    -0.73700
Cu285      Cu  0.96297468  0.68723007  0.49052633     1.04600
Cu286      Cu  0.90813146  0.68462357  0.48828903     1.04300
C287        C  0.93556388  0.72491650  0.44423953     0.92600
C288        C  0.93590302  0.64305034  0.53096503     0.91700
C289        C  0.93896841  0.64277984  0.44602079     0.83800
C290        C  0.93043373  0.72667688  0.53462194     0.90100
O291        O  0.95478937  0.47300086  0.63625701    -0.73600
O292        O  0.94939728  0.54469642  0.69688057    -0.74600
O293        O  0.94882224  0.47650987  0.70138741    -0.63200
O294        O  0.95495402  0.53780415  0.63316770    -0.71700
O295        O  0.90379974  0.53706470  0.62984486    -0.71200
O296        O  0.89754749  0.47688387  0.69769493    -0.62500
O297        O  0.89817021  0.54277600  0.69333183    -0.75000
O298        O  0.90369284  0.47267374  0.63277658    -0.73700
Cu299      Cu  0.95385489  0.50791734  0.66744948     1.04600
Cu300      Cu  0.89911947  0.50724321  0.66352535     1.04300
C301        C  0.92999310  0.46243894  0.62389921     0.92600
C302        C  0.92279987  0.55633614  0.70271453     0.91700
C303        C  0.92219708  0.46591457  0.70916472     0.83800
C304        C  0.93002728  0.54706699  0.62073315     0.90100
O305        O  0.68478664  0.13484934  0.46242932    -0.73600
O306        O  0.74931833  0.14166634  0.52752634    -0.74600
O307        O  0.74872551  0.13963000  0.46105152    -0.63200
O308        O  0.68437399  0.13707798  0.52675645    -0.71700
O309        O  0.68643043  0.08606567  0.52738796    -0.71200
O310        O  0.75332511  0.08863563  0.46366770    -0.62500
O311        O  0.75090960  0.09058659  0.53075324    -0.75000
O312        O  0.68881981  0.08390769  0.46288343    -0.73700
Cu313      Cu  0.71703957  0.14009647  0.49458164     1.04600
Cu314      Cu  0.72035518  0.08551895  0.49632141     1.04300
C315        C  0.67657243  0.10827515  0.45228452     0.92600
C316        C  0.75881227  0.11731013  0.54070741     0.91700
C317        C  0.75839199  0.11410041  0.44990633     0.83800
C318        C  0.67428499  0.11125967  0.53667577     0.90100
O319        O  0.57418374  0.13989378  0.64548689    -0.73600
O320        O  0.50970220  0.14097112  0.71170961    -0.74600
O321        O  0.57770999  0.14108973  0.70969931    -0.63200
O322        O  0.50941322  0.13896753  0.64758908    -0.71700
O323        O  0.50889088  0.08790983  0.64996314    -0.71200
O324        O  0.57985660  0.08993443  0.70867912    -0.62500
O325        O  0.51143626  0.08986314  0.71435405    -0.75000
O326        O  0.57338443  0.08879720  0.64505042    -0.73700
Cu327      Cu  0.54286843  0.14203883  0.67906290     1.04600
Cu328      Cu  0.54346684  0.08737555  0.68000105     1.04300
C329        C  0.58315033  0.11425906  0.63397005     0.92600
C330        C  0.49795872  0.11543024  0.72058008     0.91700
C331        C  0.59146534  0.11599833  0.71649118     0.83800
C332        C  0.49872129  0.11282943  0.63860984     0.90100
O333        O  0.15601700  0.47545563  0.63246303    -0.73600
O334        O  0.15989173  0.54392895  0.69361407    -0.74600
O335        O  0.15930856  0.47762892  0.69697595    -0.63200
O336        O  0.15658617  0.54045546  0.63010602    -0.71700
O337        O  0.10535377  0.54170432  0.63287787    -0.71200
O338        O  0.10792243  0.47562661  0.69806507    -0.62500
O339        O  0.10848996  0.54328098  0.69749780    -0.75000
O340        O  0.10461655  0.47591852  0.63357509    -0.73700
Cu341      Cu  0.15964787  0.50920293  0.66347637     1.04600
Cu342      Cu  0.10472293  0.50904454  0.66593250     1.04300
C343        C  0.12998959  0.46543195  0.62264586     0.92600
C344        C  0.13468111  0.55617300  0.70273421     0.91700
C345        C  0.13415461  0.46519458  0.70648782     0.83800
C346        C  0.13085802  0.55180485  0.62152109     0.90100
O347        O  0.16923953  0.71436260  0.44917287    -0.73600
O348        O  0.16005048  0.65439142  0.51809547    -0.74600
O349        O  0.15937014  0.65132408  0.45289248    -0.63200
O350        O  0.16943048  0.71826432  0.51593319    -0.71700
O351        O  0.11850751  0.72558689  0.51638313    -0.71200
O352        O  0.10843139  0.65796534  0.45334761    -0.62500
O353        O  0.10915953  0.66077575  0.51883162    -0.75000
O354        O  0.11832197  0.72171273  0.44978827    -0.73700
Cu355      Cu  0.16628633  0.68465563  0.48409034     1.04600
Cu356      Cu  0.11184610  0.69208116  0.48467128     1.04300
C357        C  0.14482963  0.72506155  0.43693448     0.92600
C358        C  0.13338197  0.64761088  0.52909814     0.91700
C359        C  0.13244619  0.64436387  0.44281351     0.83800
C360        C  0.14531632  0.73074946  0.52763736     0.90100
O361        O  0.56447474  0.92527983  0.63809990    -0.73600
O362        O  0.50106681  0.91884965  0.70684375    -0.74600
O363        O  0.56846770  0.92119451  0.70269806    -0.63200
O364        O  0.49869710  0.92361629  0.64182702    -0.71700
O365        O  0.49930138  0.87253547  0.63778460    -0.71200
O366        O  0.56756420  0.87000682  0.69980543    -0.62500
O367        O  0.50116810  0.86776186  0.70188793    -0.75000
O368        O  0.56491131  0.87428047  0.63512500    -0.73700
Cu369      Cu  0.53318900  0.92404329  0.67277725     1.04600
Cu370      Cu  0.53340229  0.86942284  0.66871111     1.04300
C371        C  0.57477163  0.90043951  0.62574604     0.92600
C372        C  0.48941210  0.89238086  0.71310388     0.91700
C373        C  0.57965563  0.89511998  0.70996740     0.83800
C374        C  0.48808669  0.89851329  0.63011249     0.90100
O375        O  0.68537934  0.92301859  0.45770810    -0.73600
O376        O  0.74941330  0.92608823  0.52395849    -0.74600
O377        O  0.75035382  0.92281730  0.45662246    -0.63200
O378        O  0.68394513  0.92551301  0.52291427    -0.71700
O379        O  0.68346608  0.87451450  0.52274725    -0.71200
O380        O  0.75154965  0.87180772  0.46050291    -0.62500
O381        O  0.74780952  0.87491473  0.52665614    -0.75000
O382        O  0.68642599  0.87190131  0.45791863    -0.73700
Cu383      Cu  0.71763385  0.92620284  0.49017486     1.04600
Cu384      Cu  0.71761908  0.87157820  0.49190148     1.04300
C385        C  0.67536754  0.89704261  0.44768794     0.92600
C386        C  0.75609680  0.90110956  0.53767609     0.91700
C387        C  0.76030068  0.89656017  0.44730410     0.83800
C388        C  0.67278768  0.90004570  0.53293543     0.90100
O389        O  0.74481648  0.47552375  0.12241420    -0.73600
O390        O  0.67813830  0.53697801  0.11215609    -0.74600
O391        O  0.68035388  0.47280485  0.11632855    -0.63200
O392        O  0.74168447  0.54159227  0.11781449    -0.71700
O393        O  0.74552488  0.54031150  0.06674099    -0.71200
O394        O  0.68483080  0.46868036  0.06564895    -0.62500
O395        O  0.68194978  0.53382982  0.06111980    -0.75000
O396        O  0.75046363  0.47240091  0.07153946    -0.73700
Cu397      Cu  0.71143697  0.50685347  0.11883355     1.04600
Cu398      Cu  0.71630886  0.50358533  0.06440149     1.04300
C399        C  0.75605176  0.46223029  0.09853583     0.92600
C400        C  0.66955282  0.54520974  0.08542470     0.91700
C401        C  0.67193355  0.46038360  0.09091604     0.83800
C402        C  0.75090044  0.55363948  0.09263028     0.90100
O403        O  0.56864598  0.65179886  0.06241064    -0.73600
O404        O  0.50121551  0.71462857  0.06728352    -0.74600
O405        O  0.56881139  0.71595332  0.06908154    -0.63200
O406        O  0.50353129  0.64978451  0.06104773    -0.71700
O407        O  0.50329566  0.64582380  0.11200471    -0.71200
O408        O  0.56508145  0.71307507  0.12008438    -0.62500
O409        O  0.49894944  0.70945880  0.11818854    -0.75000
O410        O  0.56767839  0.64919442  0.11345661    -0.73700
Cu411      Cu  0.53567109  0.68359006  0.06308916     1.04600
Cu412      Cu  0.53382655  0.67955168  0.11763439     1.04300
C413        C  0.57813298  0.64001789  0.08741441     0.92600
C414        C  0.48758462  0.71935161  0.09313996     0.91700
C415        C  0.57826301  0.72356904  0.09600054     0.83800
C416        C  0.49346349  0.63708321  0.08562626     0.90100
O417        O  0.49267020  0.65694699  0.91362221    -0.73600
O418        O  0.55992502  0.71978115  0.91093049    -0.74600
O419        O  0.49236446  0.72100849  0.90714447    -0.63200
O420        O  0.55801782  0.65618428  0.91629734    -0.71700
O421        O  0.56024457  0.65290985  0.86524759    -0.71200
O422        O  0.49366281  0.71430338  0.85624077    -0.62500
O423        O  0.56001619  0.71637497  0.85972031    -0.75000
O424        O  0.49567232  0.65115216  0.86280105    -0.73700
Cu425      Cu  0.52563290  0.68906021  0.91384690     1.04600
Cu426      Cu  0.52755605  0.68384359  0.85927583     1.04300
C427        C  0.48391102  0.64370550  0.88873317     0.92600
C428        C  0.57205050  0.72602576  0.88489448     0.91700
C429        C  0.48064694  0.72503215  0.88043987     0.83800
C430        C  0.56948366  0.64439520  0.89166725     0.90100
O431        O  0.67627919  0.54294823  0.91573794    -0.73600
O432        O  0.74054677  0.47648469  0.91390117    -0.74600
O433        O  0.74102639  0.54383383  0.91063825    -0.63200
O434        O  0.67609251  0.47774246  0.91845485    -0.71700
O435        O  0.67321762  0.47554235  0.86742123    -0.71200
O436        O  0.73807941  0.54008169  0.85960122    -0.62500
O437        O  0.73741678  0.47485616  0.86278640    -0.75000
O438        O  0.67372866  0.54009827  0.86482031    -0.73700
Cu439      Cu  0.70888797  0.51039234  0.91656478     1.04600
Cu440      Cu  0.70566092  0.50756217  0.86196766     1.04300
C441        C  0.66449781  0.55167470  0.89037258     0.92600
C442        C  0.74772399  0.46415170  0.88796636     0.91700
C443        C  0.74841781  0.55343175  0.88379799     0.83800
C444        C  0.66441241  0.46625562  0.89385358     0.90100
C445        C  0.64144854  0.13214348  0.22259385     0.85800
C446        C  0.60991418  0.12894229  0.23805415    -0.54400
C447        C  0.60731217  0.10439978  0.25715381     0.08700
C448        C  0.63697918  0.08484864  0.25943802     0.19700
C449        C  0.66370616  0.13351591  0.25007502    -0.55200
C450        C  0.66283975  0.10808568  0.26824418     0.08800
C451        C  0.64752487  0.10092727  0.20690727    -0.54700
C452        C  0.64479423  0.07635583  0.22605213     0.09400
H453        H  0.59151907  0.14565365  0.23521035     0.13900
H454        H  0.63492985  0.06467850  0.27489155    -0.00400
H455        H  0.67846623  0.15289839  0.25596039     0.14200
H456        H  0.65181677  0.09833685  0.18228887     0.14000
C457        C  0.67143510  0.89696703  0.27405281     0.85800
C458        C  0.63863681  0.89065767  0.28658383    -0.54400
C459        C  0.61571600  0.89262835  0.26512369     0.08700
C460        C  0.62746800  0.89988757  0.23258837     0.19700
C461        C  0.67417083  0.87275145  0.24768613    -0.55200
C462        C  0.65172541  0.87447274  0.22543255     0.08800
C463        C  0.66949313  0.92809203  0.25767850    -0.54700
C464        C  0.64648577  0.92975556  0.23634578     0.09400
H465        H  0.63360611  0.88492313  0.31037038     0.13900
H466        H  0.60877246  0.90175908  0.21525564    -0.00400
H467        H  0.69071388  0.85416348  0.24835962     0.14200
H468        H  0.68551122  0.94704770  0.26215939     0.14000
O469        O  0.66878392  0.03639203  0.84624158    -0.73600
O470        O  0.66785135  0.96950805  0.78187134    -0.74600
O471        O  0.67403550  0.03637305  0.78187691    -0.63200
O472        O  0.66340535  0.97106681  0.84550537    -0.71700
O473        O  0.61229812  0.97411401  0.84235884    -0.71200
O474        O  0.62294290  0.04047419  0.77808940    -0.62500
O475        O  0.61669645  0.97344021  0.77789255    -0.75000
O476        O  0.61772291  0.03974576  0.84291410    -0.73700
Cu477      Cu  0.67025606  0.00325971  0.81363963     1.04600
Cu478      Cu  0.61563692  0.00716009  0.80984961     1.04300
C479        C  0.64325132  0.04840555  0.85510800     0.92600
C480        C  0.64181239  0.95901161  0.77245755     0.91700
C481        C  0.65025228  0.05050945  0.77212974     0.83800
C482        C  0.63650104  0.96171028  0.85359661     0.90100
O483        O  0.65674636  0.85732525  0.95538937    -0.73600
O484        O  0.66206747  0.79748560  0.02442764    -0.74600
O485        O  0.66233201  0.79334982  0.95808961    -0.63200
O486        O  0.65703687  0.86053738  0.02017470    -0.71700
O487        O  0.60577976  0.85649635  0.02181729    -0.71200
O488        O  0.61095579  0.78920638  0.95753323    -0.62500
O489        O  0.61077132  0.79244001  0.02443396    -0.75000
O490        O  0.60544571  0.85435218  0.95617370    -0.73700
Cu491      Cu  0.66123379  0.82703376  0.98941139     1.04600
Cu492      Cu  0.60636222  0.82265436  0.98990363     1.04300
C493        C  0.63047808  0.86586100  0.94522880     0.92600
C494        C  0.63704334  0.78786580  0.03692600     0.91700
C495        C  0.63752777  0.78255415  0.94626181     0.83800
C496        C  0.63105201  0.86837220  0.03175016     0.90100
C497        C  0.65435335  0.23439460  0.86848709     0.85800
C498        C  0.62081778  0.24614740  0.86905240    -0.54400
C499        C  0.61352035  0.26451779  0.89366825     0.08700
C500        C  0.64089547  0.27064142  0.91562089     0.19700
C501        C  0.67392585  0.26419453  0.86990005    -0.55200
C502        C  0.66686404  0.28318811  0.89433098     0.08800
C503        C  0.65923127  0.21988103  0.90005432    -0.54700
C504        C  0.65193990  0.23836573  0.92454002     0.09400
H505        H  0.60433384  0.24084872  0.85085717     0.13900
H506        H  0.63529382  0.28600124  0.93553248    -0.00400
H507        H  0.69162718  0.27097452  0.85368502     0.14200
H508        H  0.66600792  0.19593859  0.90278090     0.14000
O509        O  0.66823070  0.14779858  0.02977863    -0.73600
O510        O  0.67419840  0.21447906  0.96743447    -0.74600
O511        O  0.67045847  0.21211775  0.03381489    -0.63200
O512        O  0.67153177  0.15001841  0.96445612    -0.71700
O513        O  0.62028412  0.15155404  0.96290925    -0.71200
O514        O  0.61912186  0.21459941  0.03116181    -0.62500
O515        O  0.62281441  0.21648669  0.96508417    -0.75000
O516        O  0.61701347  0.14966520  0.02845372    -0.73700
Cu517      Cu  0.67288435  0.18132096  0.99896712     1.04600
Cu518      Cu  0.61803221  0.18336013  0.99681974     1.04300
C519        C  0.64186811  0.13835464  0.03939614     0.92600
C520        C  0.64952870  0.22421802  0.95489144     0.91700
C521        C  0.64451252  0.22147865  0.04453820     0.83800
C522        C  0.64594316  0.14094613  0.95264373     0.90100
O523        O  0.61115738  0.03338403  0.14434847    -0.73600
O524        O  0.61649199  0.96589828  0.20798060    -0.74600
O525        O  0.61748998  0.03257496  0.20890615    -0.63200
O526        O  0.60870874  0.96814922  0.14365253    -0.71700
O527        O  0.65986803  0.96561012  0.14010567    -0.71200
O528        O  0.66850877  0.03405078  0.20134431    -0.62500
O529        O  0.66778439  0.96834968  0.20448148    -0.75000
O530        O  0.66204096  0.03025771  0.13810279    -0.73700
Cu531      Cu  0.61160617  0.99993585  0.17668462     1.04600
Cu532      Cu  0.66629306  0.99935369  0.17102638     1.04300
C533        C  0.63620714  0.04234458  0.13114797     0.92600
C534        C  0.64327880  0.95622827  0.21567715     0.91700
C535        C  0.64385370  0.04534715  0.21301649     0.83800
C536        C  0.63296155  0.95680996  0.13133486     0.90100
C537        C  0.64259069  0.23216782  0.13175061     0.85800
C538        C  0.64735276  0.21636613  0.10025679    -0.54400
C539        C  0.64338167  0.23496688  0.07559269     0.08700
C540        C  0.63519758  0.26835845  0.08419333     0.19700
C541        C  0.66488438  0.25992284  0.13108014    -0.55200
C542        C  0.66155462  0.27835235  0.10622781     0.08800
C543        C  0.61043103  0.24713860  0.13004409    -0.54700
C544        C  0.60620652  0.26554787  0.10516475     0.09400
H545        H  0.65258372  0.19194949  0.09765469     0.13900
H546        H  0.63227681  0.28370925  0.06410777    -0.00400
H547        H  0.68204446  0.26618350  0.14778630     0.14200
H548        H  0.59251453  0.24361376  0.14736887     0.14000
O549        O  0.45768870  0.85102719  0.95712735    -0.73600
O550        O  0.45173270  0.78651287  0.02220101    -0.74600
O551        O  0.44872543  0.78705872  0.95468568    -0.63200
O552        O  0.46013667  0.85064430  0.02244210    -0.71700
O553        O  0.40914063  0.85637371  0.02333399    -0.71200
O554        O  0.39764659  0.79214801  0.95794874    -0.62500
O555        O  0.40064566  0.79243712  0.02348700    -0.75000
O556        O  0.40656964  0.85601728  0.95836304    -0.73700
Cu557      Cu  0.45641424  0.81831884  0.98905208     1.04600
Cu558      Cu  0.40178708  0.82432744  0.99093781     1.04300
C559        C  0.43301148  0.86355490  0.94736184     0.92600
C560        C  0.42526873  0.78046935  0.03402839     0.91700
C561        C  0.42150525  0.78097538  0.94460685     0.83800
C562        C  0.43598488  0.86376499  0.03335243     0.90100
O563        O  0.46166728  0.03442295  0.84755950    -0.73600
O564        O  0.45805243  0.96788547  0.78126827    -0.74600
O565        O  0.45989256  0.03684263  0.78292728    -0.63200
O566        O  0.46067395  0.96888305  0.84542171    -0.71700
O567        O  0.40930875  0.96908702  0.84636915    -0.71200
O568        O  0.40850661  0.03669853  0.78485920    -0.62500
O569        O  0.40673826  0.97054431  0.78261919    -0.75000
O570        O  0.41033508  0.03389931  0.84896310    -0.73700
Cu571      Cu  0.46201058  0.00205700  0.81389081     1.04600
Cu572      Cu  0.40708596  0.00265120  0.81555705     1.04300
C573        C  0.43613692  0.04414909  0.85903142     0.92600
C574        C  0.43141554  0.95722567  0.77348040     0.91700
C575        C  0.43394945  0.04875849  0.77564792     0.83800
C576        C  0.43498748  0.95800147  0.85535156     0.90100
C577        C  0.42744827  0.86201809  0.21526025     0.85800
C578        C  0.45792945  0.86063697  0.23330459    -0.54400
C579        C  0.46272325  0.88468744  0.25325648     0.08700
C580        C  0.43528249  0.90742067  0.25532603     0.19700
C581        C  0.40250217  0.86321430  0.24124220    -0.55200
C582        C  0.40655200  0.88691844  0.26231684     0.08800
C583        C  0.42681818  0.89430870  0.20133863    -0.54700
C584        C  0.43063779  0.91795777  0.22200922     0.09400
H585        H  0.47450096  0.84206735  0.23054925     0.13900
H586        H  0.43870894  0.92667234  0.27212740    -0.00400
H587        H  0.38374226  0.84662129  0.24351373     0.14200
H588        H  0.42380788  0.89815989  0.17681380     0.14000
O589        O  0.40583554  0.96165988  0.20169334    -0.73600
O590        O  0.40925714  0.03178604  0.14243018    -0.74600
O591        O  0.41112829  0.96699462  0.13815351    -0.63200
O592        O  0.40327219  0.02830149  0.20635930    -0.71700
O593        O  0.45456208  0.03027875  0.21044789    -0.71200
O594        O  0.46234359  0.96765326  0.14142688    -0.62500
O595        O  0.46036893  0.03348104  0.14558942    -0.75000
O596        O  0.45709239  0.96329646  0.20600703    -0.73700
Cu597      Cu  0.40568006  0.99710327  0.17237130     1.04600
Cu598      Cu  0.46042751  0.99874077  0.17637470     1.04300
C599        C  0.43111162  0.94992633  0.21101807     0.92600
C600        C  0.43519012  0.04361839  0.13422049     0.91700
C601        C  0.43750489  0.95771593  0.12868318     0.83800
C602        C  0.42775740  0.04089964  0.21708824     0.90100
O603        O  0.45701744  0.15134262  0.03071226    -0.73600
O604        O  0.45252779  0.21439160  0.96295851    -0.74600
O605        O  0.45105842  0.21596861  0.03082580    -0.63200
O606        O  0.45844426  0.15045060  0.96492843    -0.71700
O607        O  0.40719061  0.14712351  0.96357646    -0.71200
O608        O  0.39989276  0.20996677  0.03102372    -0.62500
O609        O  0.40118870  0.21134185  0.96410594    -0.75000
O610        O  0.40606843  0.14625550  0.02864971    -0.73700
Cu611      Cu  0.45657680  0.18356187  0.99735005     1.04600
Cu612      Cu  0.40186232  0.17879503  0.99672575     1.04300
C613        C  0.43196779  0.13863791  0.04030840     0.92600
C614        C  0.42619415  0.22121914  0.95165310     0.91700
C615        C  0.42457598  0.22057864  0.04334495     0.83800
C616        C  0.43374522  0.13858991  0.95373843     0.90100
C617        C  0.40387485  0.27721841  0.88745353     0.85800
C618        C  0.43724066  0.29007073  0.88635932    -0.54400
C619        C  0.45979495  0.26877441  0.89102380     0.08700
C620        C  0.44742900  0.23592133  0.89574828     0.19700
C621        C  0.40447348  0.25112569  0.86286795    -0.55200
C622        C  0.42691183  0.22918449  0.86699738     0.08800
C623        C  0.40166919  0.26043718  0.91836387    -0.54700
C624        C  0.42448563  0.23942241  0.92310070     0.09400
H625        H  0.44339039  0.31385605  0.88187464     0.13900
H626        H  0.46577337  0.21856376  0.89955229    -0.00400
H627        H  0.38856844  0.25018395  0.84357642     0.14200
H628        H  0.38374572  0.26525679  0.93539175     0.14000
C629        C  0.16038206  0.60945022  0.20721036     0.85800
C630        C  0.12815897  0.61131907  0.19279005    -0.54400
C631        C  0.10446590  0.60861455  0.21331533     0.08700
C632        C  0.11468869  0.60511691  0.24672396     0.19700
C633        C  0.16006161  0.63534294  0.23143684    -0.55200
C634        C  0.13597247  0.63362491  0.25198111     0.08800
C635        C  0.16045481  0.57980615  0.22531852    -0.54700
C636        C  0.13676239  0.57722401  0.24564265     0.09400
H637        H  0.12428540  0.61423419  0.16826183     0.13900
H638        H  0.09512314  0.60289439  0.26326977    -0.00400
H639        H  0.17639347  0.65429081  0.23179632     0.14200
H640        H  0.17801309  0.56213503  0.22227544     0.14000
C641        C  0.89589861  0.61456231  0.21169675     0.85800
C642        C  0.89543233  0.58350719  0.22886668    -0.54400
C643        C  0.92060255  0.57907700  0.24730251     0.08700
C644        C  0.94392052  0.60624928  0.24717608     0.19700
C645        C  0.89970353  0.63931755  0.23667822    -0.55200
C646        C  0.92468443  0.63533431  0.25521142     0.08800
C647        C  0.92716892  0.61395635  0.19457641    -0.54700
C648        C  0.95205860  0.61003134  0.21311945     0.09400
H649        H  0.87770977  0.56589535  0.22586937     0.13900
H650        H  0.96446758  0.60297987  0.26204846    -0.00400
H651        H  0.88386685  0.65854249  0.23944731     0.14200
H652        H  0.92966837  0.61582531  0.16972314     0.14000
O653        O  0.05950149  0.58698847  0.83102816    -0.73600
O654        O  0.99455381  0.59486596  0.76627705    -0.74600
O655        O  0.06173599  0.59387318  0.76744298    -0.63200
O656        O  0.99395570  0.58843467  0.83109316    -0.71700
O657        O  0.99672109  0.63917775  0.83750227    -0.71200
O658        O  0.06101002  0.64503100  0.77135552    -0.62500
O659        O  0.99432986  0.64571803  0.77361763    -0.75000
O660        O  0.06205808  0.63793667  0.83543416    -0.73700
Cu661      Cu  0.02739081  0.58927742  0.79845055     1.04600
Cu662      Cu  0.02862650  0.64375255  0.80440948     1.04300
C663        C  0.07128694  0.61119982  0.84325546     0.92600
C664        C  0.98243210  0.62123068  0.76190869     0.91700
C665        C  0.07311814  0.62026714  0.76080499     0.83800
C666        C  0.98496765  0.61311416  0.84478129     0.90100
O667        O  0.87882419  0.58862208  0.95062409    -0.73600
O668        O  0.81408913  0.59223494  0.01848760    -0.74600
O669        O  0.81390991  0.59314166  0.95185293    -0.63200
O670        O  0.87902528  0.58717448  0.01598691    -0.71700
O671        O  0.88279490  0.63825085  0.01778417    -0.71200
O672        O  0.81912852  0.64427304  0.95241209    -0.62500
O673        O  0.81833763  0.64337059  0.01908179    -0.75000
O674        O  0.88305719  0.63954195  0.95309293    -0.73700
Cu675      Cu  0.84599735  0.58848082  0.98422381     1.04600
Cu676      Cu  0.85062121  0.64309872  0.98570447     1.04300
C677        C  0.89107439  0.61378258  0.94107861     0.92600
C678        C  0.80797036  0.61845667  0.03083010     0.91700
C679        C  0.80863312  0.61944049  0.94021152     0.83800
C680        C  0.89140257  0.61176919  0.02685782     0.90100
C681        C  0.25394256  0.59827703  0.84552776     0.85800
C682        C  0.23954106  0.60054224  0.87779460    -0.54400
C683        C  0.26015738  0.60135491  0.90126914     0.08700
C684        C  0.29400326  0.59933992  0.89094233     0.19700
C685        C  0.27754494  0.62504964  0.84414385    -0.55200
C686        C  0.29814329  0.62677317  0.86815416     0.08800
C687        C  0.27439855  0.56937936  0.84692147    -0.54700
C688        C  0.29476472  0.56947884  0.87083668     0.09400
H689        H  0.21465310  0.60118802  0.88181634     0.13900
H690        H  0.31034447  0.59930829  0.91058228    -0.00400
H691        H  0.27766533  0.64108002  0.82516089     0.14200
H692        H  0.27353572  0.54976036  0.83152393     0.14000
O693        O  0.17566654  0.57910544  0.01127028    -0.73600
O694        O  0.23959004  0.57691974  0.94485320    -0.74600
O695        O  0.24032468  0.57759347  0.01107806    -0.63200
O696        O  0.17476087  0.57918033  0.94622151    -0.71700
O697        O  0.17671773  0.63028269  0.94774488    -0.71200
O698        O  0.24241617  0.62892572  0.01098376    -0.62500
O699        O  0.24118947  0.62824408  0.94487442    -0.75000
O700        O  0.17771759  0.63019822  0.01269768    -0.73700
Cu701      Cu  0.20786139  0.57637972  0.97832878     1.04600
Cu702      Cu  0.20990498  0.63116326  0.97906226     1.04300
C703        C  0.16634452  0.60476709  0.02243603     0.92600
C704        C  0.24836159  0.60222802  0.93281797     0.91700
C705        C  0.24943130  0.60320387  0.02286167     0.83800
C706        C  0.16507293  0.60530914  0.93707057     0.90100
O707        O  0.99534139  0.63467724  0.19125843    -0.73600
O708        O  0.06409192  0.63370942  0.12955973    -0.74600
O709        O  0.99905587  0.63393079  0.12713199    -0.63200
O710        O  0.06157831  0.63426998  0.19374811    -0.71700
O711        O  0.06105621  0.58288357  0.19341549    -0.71200
O712        O  0.99738117  0.58273872  0.12752864    -0.62500
O713        O  0.06254644  0.58250824  0.12885439    -0.75000
O714        O  0.99470648  0.58334086  0.19198432    -0.73700
Cu715      Cu  0.02999587  0.63592379  0.16076144     1.04600
Cu716      Cu  0.02888618  0.58105110  0.16076130     1.04300
C717        C  0.98300730  0.60928181  0.19964285     0.92600
C718        C  0.07394685  0.60791684  0.11911858     0.91700
C719        C  0.98841941  0.60837978  0.11663948     0.83800
C720        C  0.07304992  0.60858839  0.20175915     0.90100
C721        C  0.25357509  0.60551973  0.10981454     0.85800
C722        C  0.27192448  0.57585137  0.11065001    -0.54400
C723        C  0.29286192  0.57279323  0.08751280     0.08700
C724        C  0.29411359  0.60018359  0.06510662     0.19700
C725        C  0.27826612  0.63113839  0.10976542    -0.55200
C726        C  0.29911597  0.62903396  0.08605330     0.08800
C727        C  0.23976000  0.60746537  0.07759114    -0.54700
C728        C  0.26063868  0.60352807  0.05436022     0.09400
H729        H  0.26895104  0.55875730  0.12860222     0.13900
H730        H  0.31109568  0.59760825  0.04595766    -0.00400
H731        H  0.27902475  0.65009305  0.12616853     0.14200
H732        H  0.21566912  0.61278525  0.07323596     0.14000
O733        O  0.88699876  0.42699149  0.02356121    -0.73600
O734        O  0.81849289  0.42801291  0.96230521    -0.74600
O735        O  0.82289623  0.42542194  0.02961254    -0.63200
O736        O  0.88365845  0.42932730  0.95878031    -0.71700
O737        O  0.88526811  0.37822415  0.95780503    -0.71200
O738        O  0.82213705  0.37433245  0.02508697    -0.62500
O739        O  0.82088936  0.37684373  0.95880127    -0.75000
O740        O  0.88656788  0.37586978  0.02233710    -0.73700
Cu741      Cu  0.85263482  0.42927184  0.99367590     1.04600
Cu742      Cu  0.85341497  0.37457399  0.99096897     1.04300
C743        C  0.89754965  0.40127282  0.03271218     0.92600
C744        C  0.81140742  0.40262869  0.94877188     0.91700
C745        C  0.81445935  0.39899416  0.03953015     0.83800
C746        C  0.89483600  0.40420916  0.94783719     0.90100
O747        O  0.99387484  0.37673527  0.77724417    -0.73600
O748        O  0.06241187  0.37763769  0.83862508    -0.74600
O749        O  0.99713397  0.37968614  0.84122525    -0.63200
O750        O  0.06096278  0.37473932  0.77442313    -0.71700
O751        O  0.06238978  0.42594990  0.77209249    -0.71200
O752        O  0.99851941  0.43077686  0.83968802    -0.62500
O753        O  0.06434228  0.42857937  0.83684658    -0.75000
O754        O  0.99554966  0.42797931  0.77516655    -0.73700
Cu755      Cu  0.02851573  0.37544135  0.80757941     1.04600
Cu756      Cu  0.03027136  0.43009913  0.80557433     1.04300
C757        C  0.98229714  0.40228707  0.76884282     0.92600
C758        C  0.07429714  0.40324347  0.84764492     0.91700
C759        C  0.98765309  0.40587066  0.85109058     0.83800
C760        C  0.07351071  0.39962209  0.76481444     0.90100
O761        O  0.00251987  0.37798848  0.13417819    -0.73600
O762        O  0.06754751  0.37458285  0.19821206    -0.74600
O763        O  0.00117066  0.37293756  0.19812678    -0.63200
O764        O  0.06697928  0.37970810  0.13439157    -0.71700
O765        O  0.06669924  0.43068442  0.13750910    -0.71200
O766        O  0.99931275  0.42403652  0.20186215    -0.62500
O767        O  0.06807521  0.42575596  0.20171121    -0.75000
O768        O  0.00157409  0.42906124  0.13771364    -0.73700
Cu769      Cu  0.03457932  0.37463158  0.16632380     1.04600
Cu770      Cu  0.03386014  0.42926961  0.17024531     1.04300
C771        C  0.99195753  0.40386590  0.12551263     0.92600
C772        C  0.07975077  0.39960892  0.20825562     0.91700
C773        C  0.98830283  0.39739127  0.20845759     0.83800
C774        C  0.07714251  0.40585041  0.12542336     0.90100
C775        C  0.92563616  0.37096519  0.26570210     0.85800
C776        C  0.90118165  0.36870574  0.23989116    -0.54400
C777        C  0.90340030  0.39119161  0.21782495     0.08700
C778        C  0.93063527  0.41428520  0.22381434     0.19700
C779        C  0.95692835  0.37168677  0.24873513    -0.55200
C780        C  0.95987429  0.39422349  0.22727444     0.08800
C781        C  0.92202010  0.40430918  0.27821461    -0.54700
C782        C  0.92471050  0.42678254  0.25651320     0.09400
H783        H  0.88304968  0.35120980  0.23961164     0.13900
H784        H  0.93292094  0.43281952  0.20649936    -0.00400
H785        H  0.97553753  0.35574829  0.25362358     0.14200
H786        H  0.91903983  0.41070158  0.30219043     0.14000
O787        O  0.18122412  0.42463389  0.95188471    -0.73600
O788        O  0.24492653  0.42229247  0.01948948    -0.74600
O789        O  0.24605094  0.42089302  0.95175120    -0.63200
O790        O  0.18046719  0.42647504  0.01733518    -0.71700
O791        O  0.17889521  0.37544992  0.01843577    -0.71200
O792        O  0.24107548  0.36978502  0.95091503    -0.62500
O793        O  0.24324321  0.37109731  0.01724083    -0.75000
O794        O  0.17707446  0.37375633  0.95362294    -0.73700
Cu795      Cu  0.21361818  0.42542945  0.98512162     1.04600
Cu796      Cu  0.21022329  0.37082576  0.98516729     1.04300
C797        C  0.16888869  0.39940697  0.94221420     0.92600
C798        C  0.25269859  0.39606499  0.03008023     0.91700
C799        C  0.25120843  0.39466305  0.93901669     0.83800
C800        C  0.16945973  0.40153988  0.02845626     0.90100
C801        C  0.25792975  0.39079971  0.85123276     0.85800
C802        C  0.27672610  0.42119945  0.85145924    -0.54400
C803        C  0.29673494  0.42443665  0.87549684     0.08700
C804        C  0.29691937  0.39655818  0.89726366     0.19700
C805        C  0.28224412  0.36519222  0.85226945    -0.55200
C806        C  0.30282043  0.36790574  0.87610624     0.08800
C807        C  0.24271616  0.39082636  0.88339978    -0.54700
C808        C  0.26302454  0.39334790  0.90730482     0.09400
H809        H  0.27372366  0.43949062  0.83489978     0.13900
H810        H  0.31313460  0.39903800  0.91693116    -0.00400
H811        H  0.28327954  0.34663531  0.83525570     0.14200
H812        H  0.21784240  0.39017364  0.88721467     0.14000
C813        C  0.16708750  0.24299430  0.59864808     0.85800
C814        C  0.16636505  0.25527869  0.56553227    -0.54400
C815        C  0.14140155  0.27308030  0.55901807     0.08700
C816        C  0.11926635  0.27804794  0.58666072     0.19700
C817        C  0.16541076  0.27271731  0.61863571    -0.55200
C818        C  0.14027791  0.29081271  0.61271030     0.08800
C819        C  0.13550383  0.22746409  0.60347202    -0.54700
C820        C  0.11073836  0.24539407  0.59696458     0.09400
H821        H  0.18465128  0.25083060  0.54878043     0.13900
H822        H  0.09899863  0.29276848  0.58164318    -0.00400
H823        H  0.18190034  0.27989889  0.63590791     0.14200
H824        H  0.13296413  0.20340366  0.60992996     0.14000
C825        C  0.93132014  0.29356309  0.61658861     0.85800
C826        C  0.92905874  0.30403570  0.58292220    -0.54400
C827        C  0.93108406  0.28066631  0.56165113     0.08700
C828        C  0.93510667  0.24866192  0.57568716     0.19700
C829        C  0.90591803  0.26892155  0.61976627    -0.55200
C830        C  0.90775724  0.24543018  0.59870319     0.08800
C831        C  0.96203884  0.27586667  0.61725518    -0.54700
C832        C  0.96396088  0.25249727  0.59607733     0.09400
H833        H  0.92790668  0.32779193  0.57568599     0.13900
H834        H  0.93668775  0.22957257  0.55844050    -0.00400
H835        H  0.88813755  0.26975418  0.63758007     0.14200
H836        H  0.98076202  0.28137217  0.63306584     0.14000
O837        O  0.00174492  0.86021433  0.56063251    -0.73600
O838        O  0.06958025  0.79773359  0.56222066    -0.74600
O839        O  0.00156436  0.79585716  0.56587602    -0.63200
O840        O  0.06720456  0.86175169  0.55770848    -0.71700
O841        O  0.06959707  0.86403860  0.60877625    -0.71200
O842        O  0.00218273  0.80205473  0.61682766    -0.62500
O843        O  0.06884076  0.80018033  0.61340851    -0.75000
O844        O  0.00518672  0.86580233  0.61150043    -0.73700
Cu845      Cu  0.03495871  0.82832461  0.55975131     1.04600
Cu846      Cu  0.03659193  0.83280171  0.61434913     1.04300
C847        C  0.99350581  0.87344943  0.58578052     0.92600
C848        C  0.08121279  0.79081601  0.58819507     0.91700
C849        C  0.98947398  0.79135669  0.59248213     0.83800
C850        C  0.07854559  0.87337397  0.58239491     0.90100
O851        O  0.88724579  0.04024748  0.56320778    -0.73600
O852        O  0.82214619  0.97505074  0.57250486    -0.74600
O853        O  0.82296191  0.04225908  0.57223620    -0.63200
O854        O  0.88606352  0.97499325  0.56410051    -0.71700
O855        O  0.89192621  0.97630400  0.61498528    -0.71200
O856        O  0.83020906  0.04335644  0.62296362    -0.62500
O857        O  0.82766331  0.97721983  0.62342814    -0.75000
O858        O  0.89363135  0.04059422  0.61390304    -0.73700
Cu859      Cu  0.85402265  0.00804030  0.56620749     1.04600
Cu860      Cu  0.86077753  0.00929332  0.62057315     1.04300
C861        C  0.90091151  0.05057004  0.58723988     0.92600
C862        C  0.81598709  0.96478465  0.59929081     0.91700
C863        C  0.81926720  0.05522101  0.59863089     0.83800
C864        C  0.89915583  0.96544816  0.58848870     0.90100
C865        C  0.30521048  0.89770706  0.62269444     0.85800
C866        C  0.29168590  0.93047422  0.62377841    -0.54400
C867        C  0.27321506  0.93743419  0.59946966     0.08700
C868        C  0.26900164  0.91071615  0.57604480     0.19700
C869        C  0.27632937  0.87648360  0.61975092    -0.55200
C870        C  0.25755249  0.88333238  0.59545289     0.08800
C871        C  0.32057957  0.89480251  0.59074311    -0.54700
C872        C  0.30189635  0.90174703  0.56658672     0.09400
H873        H  0.29606749  0.94668964  0.64257784     0.13900
H874        H  0.25369565  0.91604663  0.55633222    -0.00400
H875        H  0.27085785  0.85687605  0.63385851     0.14200
H876        H  0.34456721  0.88796423  0.58748997     0.14000
O877        O  0.17885171  0.04226581  0.61808218    -0.73600
O878        O  0.24443020  0.97784906  0.62307057    -0.74600
O879        O  0.24268346  0.04423191  0.62650707    -0.63200
O880        O  0.18020707  0.97757676  0.61529205    -0.71700
O881        O  0.18496105  0.97899164  0.56443475    -0.71200
O882        O  0.24958546  0.04566359  0.57571844    -0.62500
O883        O  0.24926468  0.97804468  0.57206669    -0.75000
O884        O  0.18481715  0.04407533  0.56728516    -0.73700
Cu885      Cu  0.21162104  0.01032136  0.62244031     1.04600
Cu886      Cu  0.21778503  0.01173797  0.56805454     1.04300
C887        C  0.17138900  0.05329989  0.59199359     0.92600
C888        C  0.25541134  0.96623539  0.59814288     0.91700
C889        C  0.25397573  0.05714569  0.60270760     0.83800
C890        C  0.17190076  0.96832053  0.58858761     0.90100
O891        O  0.00133954  0.15774591  0.61508536    -0.73600
O892        O  0.06837465  0.22065653  0.62065399    -0.74600
O893        O  0.00240951  0.22238733  0.61947734    -0.63200
O894        O  0.06618968  0.15660820  0.61667250    -0.71700
O895        O  0.06879833  0.15953811  0.56570365    -0.71200
O896        O  0.00116298  0.22290810  0.56827331    -0.62500
O897        O  0.06807160  0.22477105  0.56958981    -0.75000
O898        O  0.00342887  0.15835395  0.56400446    -0.73700
Cu899      Cu  0.03438525  0.18948749  0.61971164     1.04600
Cu900      Cu  0.03534880  0.19176156  0.56504086     1.04300
C901        C  0.99261306  0.14719626  0.58894887     0.92600
C902        C  0.08000975  0.23115768  0.59579527     0.91700
C903        C  0.99065237  0.23187466  0.59443168     0.83800
C904        C  0.07798067  0.14790950  0.59100581     0.90100
C905        C  0.26175923  0.14472626  0.60609686     0.85800
C906        C  0.24653049  0.11274937  0.60869327    -0.54400
C907        C  0.26649129  0.08862007  0.60604361     0.08700
C908        C  0.30049922  0.09840338  0.60239303     0.19700
C909        C  0.28683462  0.14516908  0.63125195    -0.55200
C910        C  0.30683775  0.12062274  0.63035316     0.08800
C911        C  0.28056206  0.14355966  0.57617131    -0.54700
C912        C  0.30027719  0.11930823  0.57377304     0.09400
H913        H  0.22161441  0.10942517  0.61065591     0.13900
H914        H  0.31647924  0.07854900  0.60030107    -0.00400
H915        H  0.28986666  0.16394345  0.64750282     0.14200
H916        H  0.27824116  0.16055399  0.55811648     0.14000
O917        O  0.89365543  0.04100770  0.37012673    -0.73600
O918        O  0.83355768  0.97151663  0.36510940    -0.74600
O919        O  0.82921864  0.03704203  0.36594844    -0.63200
O920        O  0.89755067  0.97680930  0.36998954    -0.71700
O921        O  0.89321808  0.97583795  0.42095585    -0.71200
O922        O  0.82728495  0.03996353  0.41711833    -0.62500
O923        O  0.82835631  0.97257579  0.41612260    -0.75000
O924        O  0.89246945  0.04096448  0.42112854    -0.73700
Cu925      Cu  0.86334390  0.00672170  0.36610171     1.04600
Cu926      Cu  0.85985418  0.00742838  0.42071065     1.04300
C927        C  0.90359486  0.05139317  0.39591735     0.92600
C928        C  0.82339292  0.95958943  0.38990660     0.91700
C929        C  0.81867076  0.04922209  0.39074114     0.83800
C930        C  0.90612713  0.96657091  0.39602769     0.90100
O931        O  0.00802477  0.86366748  0.36427524    -0.73600
O932        O  0.07102988  0.79815893  0.35643905    -0.74600
O933        O  0.00574194  0.79914441  0.35726677    -0.63200
O934        O  0.07260368  0.86200404  0.36220221    -0.71700
O935        O  0.07404219  0.85850505  0.41313754    -0.71200
O936        O  0.00549705  0.79489612  0.40825498    -0.62500
O937        O  0.07300888  0.79413325  0.40744681    -0.75000
O938        O  0.00878773  0.85971466  0.41522614    -0.73700
Cu939      Cu  0.03923779  0.83076672  0.35835746     1.04600
Cu940      Cu  0.04026909  0.82643685  0.41291280     1.04300
C941        C  0.99900514  0.87268059  0.39093975     0.92600
C942        C  0.08301458  0.78690974  0.38061902     0.91700
C943        C  0.99442652  0.78764615  0.38178571     0.83800
C944        C  0.08417781  0.87011774  0.38802640     0.90100
O945        O  0.07901838  0.15188596  0.36168063    -0.73600
O946        O  0.00933029  0.21162830  0.35330055    -0.74600
O947        O  0.07732664  0.21504068  0.35264796    -0.63200
O948        O  0.01406178  0.14856617  0.36217704    -0.71700
O949        O  0.01300306  0.15536146  0.41279545    -0.71200
O950        O  0.07726352  0.22236694  0.40345607    -0.62500
O951        O  0.00929466  0.21933855  0.40401203    -0.75000
O952        O  0.07906764  0.15841542  0.41237064    -0.73700
Cu953      Cu  0.04492575  0.18191801  0.35573896     1.04600
Cu954      Cu  0.04464300  0.18952834  0.40992376     1.04300
C955        C  0.09016683  0.14560730  0.38804483     0.92600
C956        C  0.99641054  0.22227807  0.37773491     0.91700
C957        C  0.08959423  0.22649036  0.37694994     0.83800
C958        C  0.00324601  0.14140664  0.38856413     0.90100
C959        C  0.90762006  0.22222466  0.37909845     0.85800
C960        C  0.90851116  0.24027255  0.40966712    -0.54400
C961        C  0.93120722  0.26221439  0.41149333     0.08700
C962        C  0.95122125  0.26477222  0.38200689     0.19700
C963        C  0.90525328  0.24706466  0.35406390    -0.55200
C964        C  0.92767136  0.26943029  0.35549205     0.08800
C965        C  0.94077776  0.20991118  0.37440021    -0.54700
C966        C  0.96363407  0.23191499  0.37653631     0.09400
H967        H  0.89210030  0.23623309  0.42829750     0.13900
H968        H  0.96953710  0.28285986  0.38336208    -0.00400
H969        H  0.88766904  0.24703261  0.33628762     0.14200
H970        H  0.94606933  0.18576903  0.37026262     0.14000
O971        O  0.19466017  0.03907758  0.41780683    -0.73600
O972        O  0.25617021  0.96924854  0.40904392    -0.74600
O973        O  0.25960797  0.03644934  0.41310048    -0.63200
O974        O  0.19153328  0.97342874  0.41468325    -0.71700
O975        O  0.18867972  0.97462429  0.36369722    -0.71200
O976        O  0.25506630  0.03899704  0.36215253    -0.62500
O977        O  0.25273779  0.97200228  0.35804878    -0.75000
O978        O  0.19126694  0.03932255  0.36690193    -0.73700
Cu979      Cu  0.22597503  0.00442975  0.41548524     1.04600
Cu980      Cu  0.22218226  0.00629246  0.36100463     1.04300
C981        C  0.18323215  0.05019944  0.39318216     0.92600
C982        C  0.26163806  0.95807370  0.38211885     0.91700
C983        C  0.26542869  0.04978148  0.38763716     0.83800
C984        C  0.17933191  0.96405083  0.38950031     0.90100
C985        C  0.26235452  0.87022172  0.37598838     0.85800
C986        C  0.25050930  0.90336818  0.37263243    -0.54400
C987        C  0.27194261  0.92588476  0.37885915     0.08700
C988        C  0.30416142  0.91339163  0.38653072     0.19700
C989        C  0.29048513  0.86921019  0.35364720    -0.55200
C990        C  0.31239021  0.89170715  0.35887772     0.08800
C991        C  0.27666545  0.86918204  0.40822841    -0.54700
C992        C  0.29805221  0.89169830  0.41404949     0.09400
H993        H  0.22660994  0.90869664  0.36720299     0.13900
H994        H  0.32173022  0.93170204  0.39110700    -0.00400
H995        H  0.29259173  0.85351101  0.33414550     0.14200
H996        H  0.27015487  0.85203258  0.42519684     0.14000
C997        C  0.17765255  0.23294261  0.37969979     0.85800
C998        C  0.14562231  0.21837866  0.37386427    -0.54400
C999        C  0.12147117  0.23853953  0.37527876     0.08700
C1000       C  0.13140215  0.27193681  0.38160178     0.19700
C1001       C  0.18030094  0.25910478  0.35619195    -0.55200
C1002       C  0.15570568  0.27881160  0.35577630     0.08800
C1003       C  0.17440206  0.25025695  0.41044867    -0.54700
C1004       C  0.15008968  0.27009207  0.41190331     0.09400
H1005       H  0.14214378  0.19369119  0.37123529     0.13900
H1006       H  0.11161608  0.28811638  0.38277761    -0.00400
H1007       H  0.20031494  0.26302647  0.34177065     0.14200
H1008       H  0.19008293  0.24700842  0.42963215     0.14000
C1009       C  0.27565620  0.13729681  0.38613216     0.85800
C1010       C  0.28766923  0.13717593  0.41944358    -0.54400
C1011       C  0.30559036  0.11254001  0.42663570     0.08700
C1012       C  0.31109778  0.09000996  0.39929368     0.19700
C1013       C  0.30566537  0.13517157  0.36664127    -0.55200
C1014       C  0.32395277  0.11046642  0.37319843     0.08800
C1015       C  0.26035052  0.10550939  0.38140942    -0.54700
C1016       C  0.27862482  0.08100744  0.38825407     0.09400
H1017       H  0.28289591  0.15567624  0.43589138     0.13900
H1018       H  0.32603113  0.07006586  0.40477568    -0.00400
H1019       H  0.31287149  0.15039096  0.34862839     0.14200
H1020       H  0.23641004  0.10265228  0.37418296     0.14000
O1021       O  0.38674011  0.92375824  0.52136251    -0.73600
O1022       O  0.32403491  0.91999284  0.45368432    -0.74600
O1023       O  0.32194618  0.92464505  0.52113710    -0.63200
O1024       O  0.38798592  0.91849003  0.45637826    -0.71700
O1025       O  0.38617092  0.86739818  0.45924652    -0.71200
O1026       O  0.32178617  0.87347832  0.52451952    -0.62500
O1027       O  0.32170651  0.86899092  0.45774313    -0.75000
O1028       O  0.38609148  0.87275274  0.52427842    -0.73700
Cu1029     Cu  0.35489534  0.92351811  0.48800491     1.04600
Cu1030     Cu  0.35357830  0.86889165  0.49149687     1.04300
C1031       C  0.39647646  0.89898618  0.53347183     0.92600
C1032       C  0.31489665  0.89373008  0.44353642     0.91700
C1033       C  0.31411502  0.89993246  0.53505562     0.83800
C1034       C  0.39737204  0.89192182  0.44757738     0.90100
O1035       O  0.10654791  0.35956618  0.51639232    -0.73600
O1036       O  0.11731983  0.29535986  0.44916062    -0.74600
O1037       O  0.11347171  0.29560489  0.51743911    -0.63200
O1038       O  0.10997157  0.35939302  0.45113057    -0.71700
O1039       O  0.16118954  0.36395592  0.45288945    -0.71200
O1040       O  0.16459682  0.30151083  0.51891495    -0.62500
O1041       O  0.16835506  0.30049761  0.45333638    -0.75000
O1042       O  0.15769217  0.36506680  0.51743610    -0.73700
Cu1043     Cu  0.10991169  0.32694982  0.48341012     1.04600
Cu1044     Cu  0.16461288  0.33276235  0.48573397     1.04300
C1045       C  0.13086266  0.37250170  0.52730726     0.92600
C1046       C  0.14474192  0.28933217  0.43956961     0.91700
C1047       C  0.13958395  0.29033232  0.53005648     0.83800
C1048       C  0.13520923  0.37150615  0.44147669     0.90100
O1049       O  0.39343240  0.08246521  0.47099610    -0.73600
O1050       O  0.32791545  0.08879930  0.53657300    -0.74600
O1051       O  0.32921503  0.08570801  0.46842282    -0.63200
O1052       O  0.39265038  0.08566265  0.53620203    -0.71700
O1053       O  0.39493645  0.13670854  0.53417678    -0.71200
O1054       O  0.33190762  0.13689494  0.46796389    -0.62500
O1055       O  0.33074835  0.13988509  0.53369049    -0.75000
O1056       O  0.39597385  0.13362620  0.46966908    -0.73700
Cu1057     Cu  0.36040038  0.08374854  0.50316997     1.04600
Cu1058     Cu  0.36328702  0.13844720  0.50135651     1.04300
C1059       C  0.40494651  0.10725291  0.46004971     0.92600
C1060       C  0.32041463  0.11559231  0.54660364     0.91700
C1061       C  0.32246821  0.11146646  0.45609348     0.83800
C1062       C  0.40378980  0.11142602  0.54578734     0.90100
O1063       O  0.96395646  0.35722985  0.44972818    -0.73600
O1064       O  0.95866710  0.29375885  0.51630962    -0.74600
O1065       O  0.95981053  0.29231047  0.44858493    -0.63200
O1066       O  0.96249910  0.35856425  0.51537704    -0.71700
O1067       O  0.91136636  0.36098664  0.51380972    -0.71200
O1068       O  0.90844168  0.29363390  0.45032937    -0.62500
O1069       O  0.90730496  0.29719900  0.51634770    -0.75000
O1070       O  0.91258716  0.35829285  0.44909858    -0.73700
Cu1071     Cu  0.96312175  0.32502255  0.48238896     1.04600
Cu1072     Cu  0.90826066  0.32733281  0.48217247     1.04300
C1073       C  0.93874615  0.36827729  0.43951172     0.92600
C1074       C  0.93232847  0.28858674  0.52894044     0.91700
C1075       C  0.93345257  0.28349177  0.43825031     0.83800
C1076       C  0.93707689  0.37016831  0.52525048     0.90100
C1077       C  0.14596727  0.37470587  0.26061599     0.85800
C1078       C  0.11353173  0.37477787  0.24646821    -0.54400
C1079       C  0.10866084  0.39777784  0.22598093     0.08700
C1080       C  0.13714370  0.41885727  0.22066889     0.19700
C1081       C  0.16814536  0.37340790  0.23237694    -0.55200
C1082       C  0.16388591  0.39647016  0.21137324     0.08800
C1083       C  0.15120494  0.40735945  0.27344864    -0.54700
C1084       C  0.14540053  0.43037640  0.25328992     0.09400
H1085       H  0.09589504  0.35767840  0.25201374     0.13900
H1086       H  0.13316430  0.43758483  0.20392034    -0.00400
H1087       H  0.18658754  0.35677739  0.22946680     0.14200
H1088       H  0.15724842  0.41213859  0.29732750     0.14000
C1089       C  0.30651965  0.37024306  0.09470714     0.85800
C1090       C  0.31976331  0.40274014  0.09998025    -0.54400
C1091       C  0.29951586  0.42604654  0.09499920     0.08700
C1092       C  0.26658196  0.41502004  0.08712164     0.19700
C1093       C  0.27860287  0.36935738  0.11733515    -0.55200
C1094       C  0.25755199  0.39267378  0.11362252     0.08800
C1095       C  0.29180185  0.37072900  0.06266135    -0.54700
C1096       C  0.27121601  0.39399496  0.05844500     0.09400
H1097       H  0.34374030  0.40728488  0.10598447     0.13900
H1098       H  0.24986573  0.43402759  0.08373317    -0.00400
H1099       H  0.27623678  0.35283527  0.13579619     0.14200
H1100       H  0.29698397  0.35367281  0.04484327     0.14000
O1101       O  0.32277041  0.53581909  0.11258650    -0.73600
O1102       O  0.38611906  0.47033362  0.11430675    -0.74600
O1103       O  0.38708864  0.53491989  0.11097320    -0.63200
O1104       O  0.32194375  0.47046290  0.11712387    -0.71700
O1105       O  0.31926967  0.46795284  0.06597403    -0.71200
O1106       O  0.38696534  0.53241690  0.05990574    -0.62500
O1107       O  0.38425288  0.46722833  0.06322828    -0.75000
O1108       O  0.32228497  0.53464301  0.06132751    -0.73700
Cu1109     Cu  0.35434178  0.50314051  0.11545740     1.04600
Cu1110     Cu  0.35291400  0.50047439  0.06073206     1.04300
C1111       C  0.31361306  0.54648847  0.08691026     0.92600
C1112       C  0.39492526  0.45807075  0.08889196     0.91700
C1113       C  0.39735240  0.54411653  0.08503234     0.83800
C1114       C  0.31214331  0.45741298  0.09257612     0.90100
O1115       O  0.91059051  0.47380766  0.34150120    -0.73600
O1116       O  0.90053653  0.53793072  0.27741851    -0.74600
O1117       O  0.90135486  0.47110225  0.27851096    -0.63200
O1118       O  0.91064072  0.53835260  0.34163816    -0.71700
O1119       O  0.96164317  0.53798156  0.33635177    -0.71200
O1120       O  0.95203828  0.47298587  0.26949258    -0.62500
O1121       O  0.95159416  0.54102226  0.27200605    -0.75000
O1122       O  0.96134161  0.47249074  0.33343191    -0.73700
Cu1123     Cu  0.90406797  0.50544509  0.30969182     1.04600
Cu1124     Cu  0.95846025  0.50627171  0.30215553     1.04300
C1125       C  0.93714353  0.46270366  0.34744272     0.92600
C1126       C  0.92449166  0.55109837  0.26610067     0.91700
C1127       C  0.92577829  0.45939517  0.26666718     0.83800
C1128       C  0.93739245  0.54805872  0.34999064     0.90100
O1129       O  0.39056593  0.53087093  0.86082264    -0.73600
O1130       O  0.32860834  0.46349074  0.85457466    -0.74600
O1131       O  0.32721648  0.52940389  0.85232957    -0.63200
O1132       O  0.39267990  0.46638968  0.86362142    -0.71700
O1133       O  0.38654261  0.46831870  0.91430134    -0.71200
O1134       O  0.32041071  0.53281892  0.90301130    -0.62500
O1135       O  0.32188121  0.46434648  0.90535309    -0.75000
O1136       O  0.38418527  0.53373722  0.91155105    -0.73700
Cu1137     Cu  0.35987223  0.49736053  0.85620855     1.04600
Cu1138     Cu  0.35274973  0.49978075  0.91044677     1.04300
C1139       C  0.39648987  0.54368519  0.88670811     0.92600
C1140       C  0.31654349  0.45215172  0.87885228     0.91700
C1141       C  0.31506758  0.54264861  0.87584862     0.83800
C1142       C  0.40035236  0.45745691  0.89046168     0.90100
O1143       O  0.15574986  0.54140910  0.33944677    -0.73600
O1144       O  0.16558385  0.47501632  0.27695395    -0.74600
O1145       O  0.16059019  0.54017924  0.27610950    -0.63200
O1146       O  0.15941057  0.47672862  0.34076354    -0.71700
O1147       O  0.10821911  0.47356445  0.33683157    -0.71200
O1148       O  0.10918561  0.53879495  0.27298895    -0.62500
O1149       O  0.11443755  0.47191352  0.27192335    -0.75000
O1150       O  0.10447102  0.53896132  0.33692164    -0.73700
Cu1151     Cu  0.16201929  0.50850053  0.30828141     1.04600
Cu1152     Cu  0.10716983  0.50561551  0.30429225     1.04300
C1153       C  0.12920715  0.55129534  0.34767452     0.92600
C1154       C  0.14164288  0.46163304  0.26606240     0.91700
C1155       C  0.13521443  0.55074641  0.26579291     0.83800
C1156       C  0.13351992  0.46500810  0.34903230     0.90100
C1157       C  0.42792054  0.12772714  0.22557682     0.85800
C1158       C  0.42010389  0.09592596  0.21186626    -0.54400
C1159       C  0.42544273  0.07179054  0.23091219     0.08700
C1160       C  0.43624001  0.08143311  0.26324817     0.19700
C1161       C  0.40742116  0.12905734  0.25501091    -0.55200
C1162       C  0.41182569  0.10485496  0.27469061     0.08800
C1163       C  0.46076125  0.12537511  0.23846654    -0.54700
C1164       C  0.46522810  0.10137337  0.25786899     0.09400
H1165       H  0.41230635  0.09251920  0.18829400     0.13900
H1166       H  0.43987644  0.06186091  0.27910945    -0.00400
H1167       H  0.39058063  0.14674547  0.26029451     0.14200
H1168       H  0.47843541  0.14288555  0.23448335     0.14000
C1169       C  0.42323729  0.22683954  0.13146730     0.85800
C1170       C  0.45426381  0.24419904  0.13038889    -0.54400
C1171       C  0.45746072  0.26411907  0.10648704     0.08700
C1172       C  0.42844040  0.26583224  0.08569678     0.19700
C1173       C  0.39868656  0.25239435  0.13180614    -0.55200
C1174       C  0.40044678  0.27251652  0.10768299     0.08800
C1175       C  0.41970619  0.21226018  0.09901977    -0.54700
C1176       C  0.42304230  0.23239747  0.07523658     0.09400
H1177       H  0.47253677  0.24056786  0.14705880     0.13900
H1178       H  0.43096667  0.28198921  0.06617128    -0.00400
H1179       H  0.38045770  0.25412808  0.14865251     0.14200
H1180       H  0.41606853  0.18768706  0.09507034     0.14000
O1181       O  0.56802138  0.35375607  0.92321512    -0.73600
O1182       O  0.50389783  0.28616621  0.91889879    -0.74600
O1183       O  0.57210704  0.28940890  0.92100890    -0.63200
O1184       O  0.50258992  0.35126410  0.92110746    -0.71700
O1185       O  0.50558012  0.35208745  0.87019365    -0.71200
O1186       O  0.57151478  0.28903026  0.86981444    -0.62500
O1187       O  0.50508209  0.28811976  0.86772229    -0.75000
O1188       O  0.57004710  0.35328123  0.87207213    -0.73700
Cu1189     Cu  0.53663514  0.31966410  0.92296735     1.04600
Cu1190     Cu  0.53821832  0.32029966  0.86831216     1.04300
C1191       C  0.57869505  0.36446857  0.89799142     0.92600
C1192       C  0.49215757  0.27935886  0.89263437     0.91700
C1193       C  0.58396337  0.28122170  0.89512783     0.83800
C1194       C  0.49371857  0.36208551  0.89532356     0.90100
O1195       O  0.50425489  0.12745663  0.35156493    -0.73600
O1196       O  0.56837472  0.12712592  0.28701001    -0.74600
O1197       O  0.50358600  0.12622834  0.28739619    -0.63200
O1198       O  0.56904959  0.12846561  0.35067459    -0.71700
O1199       O  0.56992138  0.07735622  0.35120716    -0.71200
O1200       O  0.50323085  0.07493694  0.28711414    -0.62500
O1201       O  0.57053674  0.07588818  0.28686647    -0.75000
O1202       O  0.50422211  0.07619912  0.35174738    -0.73700
Cu1203     Cu  0.53624751  0.12898514  0.31903830     1.04600
Cu1204     Cu  0.53693325  0.07414240  0.31910705     1.04300
C1205       C  0.49402755  0.10195736  0.36197762     0.92600
C1206       C  0.58062389  0.10200306  0.27773997     0.91700
C1207       C  0.49231672  0.10056816  0.27797860     0.83800
C1208       C  0.58041705  0.10344837  0.36061234     0.90100
O1209       O  0.56394375  0.35961450  0.11690064    -0.73600
O1210       O  0.49867276  0.29472263  0.12639039    -0.74600
O1211       O  0.56529192  0.29571680  0.12572978    -0.63200
O1212       O  0.49880686  0.35811643  0.11732617    -0.71700
O1213       O  0.49909175  0.35149623  0.06656243    -0.71200
O1214       O  0.56638597  0.28868472  0.07496103    -0.62500
O1215       O  0.49738492  0.28790550  0.07562329    -0.75000
O1216       O  0.56473407  0.35289200  0.06625729    -0.73700
Cu1217     Cu  0.53172702  0.32708663  0.12325921     1.04600
Cu1218     Cu  0.53193588  0.31963652  0.06901774     1.04300
C1219       C  0.57467011  0.36682680  0.09041843     0.92600
C1220       C  0.48602186  0.28286621  0.10246983     0.91700
C1221       C  0.57771290  0.28382332  0.10163986     0.83800
C1222       C  0.48837927  0.36467869  0.09074640     0.90100
O1223       O  0.56894086  0.91578994  0.28121415    -0.73600
O1224       O  0.50261028  0.91413189  0.34507300    -0.74600
O1225       O  0.56791340  0.91605355  0.34564601    -0.63200
O1226       O  0.50111290  0.91325835  0.28136779    -0.71700
O1227       O  0.50459290  0.86217688  0.28015172    -0.71200
O1228       O  0.56822066  0.86492396  0.34666483    -0.62500
O1229       O  0.50282942  0.86290610  0.34454025    -0.75000
O1230       O  0.57199358  0.86464504  0.28288297    -0.73700
Cu1231     Cu  0.53507261  0.91657902  0.31302498     1.04600
Cu1232     Cu  0.53686454  0.86185974  0.31323585     1.04300
C1233       C  0.58318535  0.89075629  0.27497769     0.92600
C1234       C  0.49188535  0.88845351  0.35451850     0.91700
C1235       C  0.57859463  0.89090497  0.35630922     0.83800
C1236       C  0.49101819  0.88694532  0.27220171     0.90100
C1237       C  0.93665918  0.72471430  0.35656592     0.85800
C1238       C  0.90987553  0.74800716  0.35593944    -0.54400
C1239       C  0.91145459  0.77037510  0.37838483     0.08700
C1240       C  0.93941147  0.76715921  0.40020672     0.19700
C1241       C  0.96632557  0.74447695  0.35602006    -0.55200
C1242       C  0.96799779  0.76623539  0.37896604     0.08800
C1243       C  0.93501560  0.71213824  0.38957485    -0.54700
C1244       C  0.93655747  0.73427586  0.41210850     0.09400
H1245       H  0.89147899  0.74717279  0.33896796     0.13900
H1246       H  0.94056867  0.78508758  0.41869779    -0.00400
H1247       H  0.98463897  0.74127575  0.33902518     0.14200
H1248       H  0.93209732  0.68814150  0.39556203     0.14000
C1249       C  0.40837090  0.18032321  0.20707329    -0.27000
C1250       C  0.42612534  0.15365954  0.20152888    -0.15100
C1251       C  0.44405769  0.15271037  0.17374059     0.35500
C1252       C  0.44187428  0.17642111  0.15235528    -0.26500
C1253       C  0.42299677  0.20236264  0.15713913    -0.15700
C1254       C  0.40748938  0.20483641  0.18602760     0.36600
N1255       N  0.39267574  0.23274434  0.19566398    -0.90000
H1256       H  0.39605084  0.18348403  0.22852494     0.17700
H1257       H  0.45590421  0.17469335  0.13160940     0.17700
N1258       N  0.46576186  0.12873311  0.16644823    -0.89000
H1259       H  0.40341228  0.24079385  0.21579010     0.35100
H1260       H  0.36955057  0.22762999  0.20092906     0.40200
H1261       H  0.45467757  0.10742857  0.16443460     0.39800
H1262       H  0.48305846  0.12793510  0.18306975     0.34700
C1263       C  0.45564939  0.39697746  0.92166463    -0.27000
C1264       C  0.46994696  0.38661727  0.89426710    -0.15100
C1265       C  0.46169213  0.40042135  0.86613556     0.35500
C1266       C  0.43975093  0.42386399  0.86594583    -0.26500
C1267       C  0.42510458  0.43403950  0.89313469    -0.15700
C1268       C  0.43337892  0.42047587  0.92137179     0.36600
N1269       N  0.41898120  0.42996387  0.94972616    -0.90000
H1270       H  0.46160933  0.38675035  0.94349861     0.17700
H1271       H  0.43388507  0.43380154  0.84395085     0.17700
N1272       N  0.47540307  0.39087738  0.83743686    -0.89000
H1273       H  0.43633940  0.43757614  0.96477577     0.35100
H1274       H  0.40824398  0.41066550  0.95946465     0.40200
H1275       H  0.48618621  0.41005644  0.82751907     0.39800
H1276       H  0.45769442  0.38338344  0.82273415     0.34700
C1277       C  0.43718373  0.42930902  0.06323635    -0.27000
C1278       C  0.41778716  0.43324224  0.08899714    -0.15100
C1279       C  0.42055524  0.41342435  0.11429592     0.35500
C1280       C  0.44337626  0.39081818  0.11386925    -0.26500
C1281       C  0.46349737  0.38746142  0.08855897    -0.15700
C1282       C  0.45995963  0.40669128  0.06269583     0.36600
N1283       N  0.47966836  0.40467939  0.03608090    -0.90000
H1284       H  0.43510401  0.44435074  0.04357668     0.17700
H1285       H  0.44532595  0.37578370  0.13355046     0.17700
N1286       N  0.39995112  0.41574425  0.14021722    -0.89000
H1287       H  0.47661330  0.38304257  0.02561451     0.35100
H1288       H  0.50269076  0.40726491  0.04306068     0.40200
H1289       H  0.41323884  0.41969725  0.15997072     0.39800
H1290       H  0.38856260  0.39452460  0.14264954     0.34700
C1291       C  0.32285750  0.31569919  0.10893245    -0.27000
C1292       C  0.33106699  0.34459713  0.09695850    -0.15100
C1293       C  0.36142219  0.34779239  0.08411199     0.35500
C1294       C  0.38368614  0.32452427  0.08854102    -0.26500
C1295       C  0.37586008  0.29650273  0.10251898    -0.15700
C1296       C  0.34436027  0.29161703  0.11089785     0.36600
N1297       N  0.33341819  0.26177757  0.11999496    -0.90000
H1298       H  0.29916516  0.31095841  0.11566197     0.17700
H1299       H  0.40724743  0.32832963  0.08072931     0.17700
N1300       N  0.36961681  0.37436306  0.06618860    -0.89000
H1301       H  0.31621676  0.25464033  0.10455004     0.35100
H1302       H  0.32327176  0.26392498  0.14185908     0.40200
H1303       H  0.35602543  0.37389167  0.04632827     0.39800
H1304       H  0.39263870  0.37317074  0.05870225     0.34700
C1305       C  0.22993737  0.42103995  0.15680626    -0.27000
C1306       C  0.23030184  0.39653572  0.13521892    -0.15100
C1307       C  0.20635654  0.37407536  0.13691788     0.35500
C1308       C  0.18397838  0.37555390  0.16070798    -0.26500
C1309       C  0.18453261  0.39913462  0.18330298    -0.15700
C1310       C  0.20761624  0.42241369  0.18077246     0.36600
N1311       N  0.20997662  0.44679827  0.20321207    -0.90000
H1312       H  0.24811598  0.43839017  0.15603506     0.17700
H1313       H  0.16652408  0.35752273  0.16212754     0.17700
N1314       N  0.20428619  0.34939219  0.11476261    -0.89000
H1315       H  0.21278439  0.43699841  0.22491968     0.35100
H1316       H  0.18923673  0.45907872  0.20329949     0.40200
H1317       H  0.20340351  0.35902067  0.09279587     0.39800
H1318       H  0.22423636  0.33600479  0.11608176     0.34700
C1319       C  0.91610387  0.43801651  0.39398960    -0.27000
C1320       C  0.93918113  0.43875516  0.37113826    -0.15100
C1321       C  0.96270809  0.41634753  0.37110774     0.35500
C1322       C  0.96290555  0.39391479  0.39419161    -0.26500
C1323       C  0.93947035  0.39310944  0.41674300    -0.15700
C1324       C  0.91601056  0.41550447  0.41664721     0.36600
N1325       N  0.89221740  0.41578870  0.43982507    -0.90000
H1326       H  0.89793563  0.45515037  0.39444328     0.17700
H1327       H  0.98075062  0.37645231  0.39381562     0.17700
N1328       N  0.98560491  0.41549320  0.34710682    -0.89000
H1329       H  0.87079303  0.41383467  0.42882076     0.35100
H1330       H  0.89303428  0.43711755  0.45132534     0.40200
H1331       H  0.98399663  0.39405028  0.33588490     0.39800
H1332       H  0.00744162  0.41715062  0.35731875     0.34700
C1333       C  0.42717974  0.08093756  0.41427850    -0.27000
C1334       C  0.42828825  0.10556365  0.43554108    -0.15100
C1335       C  0.45082987  0.12894998  0.43227710     0.35500
C1336       C  0.47185816  0.12734893  0.40786026    -0.26500
C1337       C  0.47090125  0.10269578  0.38669640    -0.15700
C1338       C  0.44818206  0.07947147  0.38967469     0.36600
N1339       N  0.44569233  0.05505019  0.36725640    -0.90000
H1340       H  0.40945593  0.06321826  0.41625907     0.17700
H1341       H  0.48936139  0.14527761  0.40577745     0.17700
N1342       N  0.45288345  0.15402613  0.45403013    -0.89000
H1343       H  0.44774172  0.03405847  0.37867241     0.35100
H1344       H  0.42358114  0.05587177  0.35758957     0.40200
H1345       H  0.45042669  0.17464380  0.44203625     0.39800
H1346       H  0.47499060  0.15390660  0.46374803     0.34700
C1347       C  0.10893574  0.41434225  0.41528352    -0.27000
C1348       C  0.13443335  0.39461257  0.41709012    -0.15100
C1349       C  0.15913321  0.39764194  0.39595591     0.35500
C1350       C  0.15838945  0.42093346  0.37404154    -0.26500
C1351       C  0.13313786  0.44097467  0.37250908    -0.15700
C1352       C  0.10813560  0.43759125  0.39322376     0.36600
N1353       N  0.08241326  0.45826995  0.39260357    -0.90000
H1354       H  0.08989162  0.41222618  0.43152477     0.17700
H1355       H  0.17743948  0.42298287  0.35779302     0.17700
N1356       N  0.18463640  0.37666767  0.39615419    -0.89000
H1357       H  0.08075384  0.46919402  0.41416868     0.35100
H1358       H  0.06225122  0.44518324  0.38921399     0.40200
H1359       H  0.20499588  0.38950807  0.39927314     0.39800
H1360       H  0.18586093  0.36576972  0.37454770     0.34700
C1361       C  0.42257155  0.91315921  0.40145670    -0.27000
C1362       C  0.42105661  0.88974201  0.42338479    -0.15100
C1363       C  0.44210136  0.86496009  0.42185119     0.35500
C1364       C  0.46455521  0.86445762  0.39843312    -0.26500
C1365       C  0.46668666  0.88852208  0.37722563    -0.15700
C1366       C  0.44516931  0.91278694  0.37843492     0.36600
N1367       N  0.44584474  0.93685054  0.35605295    -0.90000
H1368       H  0.40604893  0.93187972  0.40208632     0.17700
H1369       H  0.48114143  0.84581867  0.39742117     0.17700
N1370       N  0.44124815  0.84099507  0.44450097    -0.89000
H1371       H  0.44844264  0.95795225  0.36773174     0.35100
H1372       H  0.42449429  0.93691897  0.34478456     0.40200
H1373       H  0.45817567  0.82443833  0.43977873     0.39800
H1374       H  0.44696073  0.85106502  0.46576837     0.34700
C1375       C  0.37350678  0.07777393  0.30856779    -0.27000
C1376       C  0.39448167  0.10225572  0.30426647    -0.15100
C1377       C  0.39609933  0.12599780  0.32665358     0.35500
C1378       C  0.37472655  0.12663469  0.35116309    -0.26500
C1379       C  0.35170028  0.10377740  0.35382864    -0.15700
C1380       C  0.35197078  0.07846345  0.33311441     0.36600
N1381       N  0.32897616  0.05464318  0.33555889    -0.90000
H1382       H  0.37236024  0.05920491  0.29164821     0.17700
H1383       H  0.37489541  0.14608323  0.36710836     0.17700
N1384       N  0.41889463  0.14999725  0.32399255    -0.89000
H1385       H  0.34036486  0.03358983  0.33780545     0.35100
H1386       H  0.31642383  0.05385882  0.31501728     0.40200
H1387       H  0.40739210  0.17109854  0.32290725     0.39800
H1388       H  0.43225590  0.15012119  0.34402885     0.34700
C1389       C  0.22742009  0.20801150  0.35790948    -0.27000
C1390       C  0.20344358  0.20863799  0.38003372    -0.15100
C1391       C  0.20309513  0.18529073  0.40244165     0.35500
C1392       C  0.22663150  0.16323657  0.40297479    -0.26500
C1393       C  0.25163412  0.16326930  0.38181082    -0.15700
C1394       C  0.25124556  0.18622764  0.35850089     0.36600
N1395       N  0.27367669  0.18843017  0.33434139    -0.90000
H1396       H  0.22810775  0.22407165  0.33918968     0.17700
H1397       H  0.22530069  0.14565774  0.42051801     0.17700
N1398       N  0.17863265  0.18369632  0.42485141    -0.89000
H1399       H  0.27435217  0.16764856  0.32190279     0.35100
H1400       H  0.29500269  0.19498917  0.34366640     0.40200
H1401       H  0.18848848  0.18516202  0.44678965     0.39800
H1402       H  0.16777585  0.16215155  0.42264215     0.34700
C1403       C  0.13710044  0.33041918  0.33760868    -0.27000
C1404       C  0.15269357  0.30283424  0.33118830    -0.15100
C1405       C  0.16449379  0.29811629  0.30087335     0.35500
C1406       C  0.16297752  0.32165684  0.27901560    -0.26500
C1407       C  0.14841604  0.34982701  0.28560399    -0.15700
C1408       C  0.13365129  0.35327685  0.31498884     0.36600
N1409       N  0.11502321  0.37989307  0.32193045    -0.90000
H1410       H  0.12727802  0.33420724  0.36034269     0.17700
H1411       H  0.17202465  0.31678865  0.25623430     0.17700
N1412       N  0.17678237  0.26886552  0.29136084    -0.89000
H1413       H  0.10672238  0.37927822  0.34460463     0.35100
H1414       H  0.09554556  0.37892436  0.30776735     0.40200
H1415       H  0.16366072  0.26049714  0.27283796     0.39800
H1416       H  0.19948788  0.27236473  0.28355926     0.34700
C1417       C  0.15571877  0.09160011  0.36620311    -0.27000
C1418       C  0.16081769  0.07604936  0.39391383    -0.15100
C1419       C  0.14406279  0.08512175  0.42055515     0.35500
C1420       C  0.12189329  0.10873530  0.41840787    -0.26500
C1421       C  0.11581030  0.12309642  0.39016635    -0.15700
C1422       C  0.13360011  0.11482116  0.36392394     0.36600
N1423       N  0.12906457  0.12966905  0.33480955    -0.90000
H1424       H  0.16901649  0.08550002  0.34580531     0.17700
H1425       H  0.10854648  0.11516839  0.43867602     0.17700
N1426       N  0.14894675  0.07005100  0.44942781    -0.89000
H1427       H  0.14313812  0.11991180  0.31764678     0.35100
H1428       H  0.13628703  0.15260425  0.33723719     0.40200
H1429       H  0.14116841  0.04725260  0.44698779     0.39800
H1430       H  0.13527262  0.08014272  0.46668669     0.34700
C1431       C  0.15018938  0.92223582  0.36322609    -0.27000
C1432       C  0.15469301  0.94032812  0.38986924    -0.15100
C1433       C  0.13623832  0.93483444  0.41630434     0.35500
C1434       C  0.11385041  0.91120744  0.41543340    -0.26500
C1435       C  0.10918204  0.89341843  0.38862249    -0.15700
C1436       C  0.12787031  0.89879543  0.36241940     0.36600
N1437       N  0.12485048  0.88007695  0.33512138    -0.90000
H1438       H  0.16454551  0.92579405  0.34298286     0.17700
H1439       H  0.09943753  0.90722509  0.43554323     0.17700
N1440       N  0.13981904  0.95351119  0.44369118    -0.89000
H1441       H  0.14618177  0.86960505  0.33065224     0.35100
H1442       H  0.11984987  0.89453614  0.31670241     0.40200
H1443       H  0.12480639  0.94604071  0.46111351     0.39800
H1444       H  0.13315312  0.97595468  0.43830842     0.34700
C1445       C  0.93962049  0.08469262  0.36670850    -0.27000
C1446       C  0.92880828  0.07486967  0.39558205    -0.15100
C1447       C  0.94311687  0.08673487  0.42257509     0.35500
C1448       C  0.96829158  0.10744858  0.41977600    -0.26500
C1449       C  0.97865589  0.11746420  0.39070626    -0.15700
C1450       C  0.96391553  0.10579767  0.36397630     0.36600
N1451       N  0.97289765  0.11569993  0.33378661    -0.90000
H1452       H  0.92902387  0.07616769  0.34565555     0.17700
H1453       H  0.97915443  0.11655645  0.44044676     0.17700
N1454       N  0.93188301  0.07834625  0.45260677    -0.89000
H1455       H  0.95364195  0.12557621  0.32333738     0.35100
H1456       H  0.97931512  0.09626534  0.32080918     0.40200
H1457       H  0.90979643  0.08780711  0.45523369     0.39800
H1458       H  0.94555073  0.08846465  0.46985409     0.34700
C1459       C  0.95212718  0.94290199  0.37199469    -0.27000
C1460       C  0.93120200  0.94387298  0.39680091    -0.15100
C1461       C  0.93416415  0.92267215  0.42100559     0.35500
C1462       C  0.95708075  0.90002852  0.41918769    -0.26500
C1463       C  0.97703263  0.89827025  0.39358559    -0.15700
C1464       C  0.97513189  0.92055597  0.37032670     0.36600
N1465       N  0.99678131  0.92090170  0.34516682    -0.90000
H1466       H  0.95068564  0.95960754  0.35366642     0.17700
H1467       H  0.95855708  0.88317390  0.43737043     0.17700
N1468       N  0.91341796  0.92332847  0.44689105    -0.89000
H1469       H  0.00817498  0.94227666  0.34535004     0.35100
H1470       H  0.98435140  0.91891716  0.32461172     0.40200
H1471       H  0.92659750  0.92612485  0.46689815     0.39800
H1472       H  0.90207222  0.90196669  0.44797094     0.34700
C1473       C  0.14475111  0.09788782  0.61590643    -0.27000
C1474       C  0.14750761  0.07740391  0.59083625    -0.15100
C1475       C  0.12744765  0.08030986  0.56551703     0.35500
C1476       C  0.10526892  0.10386060  0.56557757    -0.26500
C1477       C  0.10238806  0.12420182  0.59085812    -0.15700
C1478       C  0.12251570  0.12117331  0.61614637     0.36600
N1479       N  0.12094624  0.14208638  0.64192661    -0.90000
H1480       H  0.16022402  0.09608966  0.63538892     0.17700
H1481       H  0.08973636  0.10570092  0.54615245     0.17700
N1482       N  0.12879866  0.05881325  0.54023350    -0.89000
H1483       H  0.14251686  0.15298558  0.64419070     0.35100
H1484       H  0.11686571  0.12919487  0.66178186     0.40200
H1485       H  0.13298363  0.07127970  0.52017065     0.39800
H1486       H  0.10710949  0.04811398  0.53818297     0.34700
C1487       C  0.94911042  0.11994412  0.56306726    -0.27000
C1488       C  0.97013420  0.12164011  0.58762694    -0.15100
C1489       C  0.96957668  0.09851298  0.61032479     0.35500
C1490       C  0.94747501  0.07516484  0.60867686    -0.26500
C1491       C  0.92550097  0.07411485  0.58502433    -0.15700
C1492       C  0.92678750  0.09646604  0.56149913     0.36600
N1493       N  0.90538323  0.09658643  0.53638241    -0.90000
H1494       H  0.94954317  0.13738413  0.54535835     0.17700
H1495       H  0.94733083  0.05778234  0.62645030     0.17700
N1496       N  0.99147830  0.09756853  0.63500425    -0.89000
H1497       H  0.88286321  0.09765088  0.54529692     0.35100
H1498       H  0.90797613  0.07617431  0.52358889     0.40200
H1499       H  0.98812797  0.11660338  0.64960160     0.39800
H1500       H  0.01388009  0.09819710  0.62573531     0.34700
C1501       C  0.10054536  0.92034400  0.60546296    -0.27000
C1502       C  0.10146996  0.89853385  0.58140566    -0.15100
C1503       C  0.12485005  0.90070363  0.55858619     0.35500
C1504       C  0.14730954  0.92402853  0.56103280    -0.26500
C1505       C  0.14699408  0.94510320  0.58591168    -0.15700
C1506       C  0.12288045  0.94338185  0.60808248     0.36600
N1507       N  0.11992293  0.96491502  0.63325488    -0.90000
H1508       H  0.08234422  0.91933495  0.62276341     0.17700
H1509       H  0.16560984  0.92512543  0.54386836     0.17700
N1510       N  0.12711327  0.87904594  0.53348841    -0.89000
H1511       H  0.12002246  0.98732567  0.62458294     0.35100
H1512       H  0.13843055  0.96219239  0.64835639     0.40200
H1513       H  0.10714073  0.88054612  0.52011255     0.39800
H1514       H  0.12855781  0.85682369  0.54247754     0.34700
C1515       C  0.95002702  0.94639143  0.60441821    -0.27000
C1516       C  0.92347044  0.94222303  0.58638308    -0.15100
C1517       C  0.92031721  0.91583675  0.56747807     0.35500
C1518       C  0.94392237  0.89388487  0.56684952    -0.26500
C1519       C  0.97025282  0.89780516  0.58530249    -0.15700
C1520       C  0.97363425  0.92446451  0.60396635     0.36600
N1521       N  0.00106868  0.92922058  0.62214894    -0.90000
H1522       H  0.95240509  0.96693596  0.61874215     0.17700
H1523       H  0.94117633  0.87322461  0.55276357     0.17700
N1524       N  0.89262002  0.91060938  0.55009747    -0.89000
H1525       H  0.99975350  0.94994921  0.63465964     0.35100
H1526       H  0.01980349  0.93148101  0.60693959     0.40200
H1527       H  0.88269853  0.88982033  0.55732067     0.39800
H1528       H  0.89880337  0.90807534  0.52687415     0.34700
C1529       C  0.19341333  0.19461722  0.58098169    -0.27000
C1530       C  0.19298227  0.21911207  0.60264645    -0.15100
C1531       C  0.21483468  0.21836745  0.62691523     0.35500
C1532       C  0.23674254  0.19447536  0.62803976    -0.26500
C1533       C  0.23766248  0.17066271  0.60564672    -0.15700
C1534       C  0.21516878  0.17094636  0.58207399     0.36600
N1535       N  0.21422166  0.14704104  0.55894309    -0.90000
H1536       H  0.17636641  0.19372121  0.56272566     0.17700
H1537       H  0.25253816  0.19491727  0.64715722     0.17700
N1538       N  0.21469961  0.24079005  0.65130435    -0.89000
H1539       H  0.19241551  0.13640937  0.55982732     0.35100
H1540       H  0.21673649  0.15727891  0.53735613     0.40200
H1541       H  0.23642577  0.25159892  0.65185937     0.39800
H1542       H  0.21138301  0.22933598  0.67215722     0.34700
C1543       C  0.93128517  0.28960778  0.30164792    -0.27000
C1544       C  0.92793881  0.29558754  0.33334158    -0.15100
C1545       C  0.92105502  0.32579060  0.34318919     0.35500
C1546       C  0.91975630  0.34981360  0.32149323    -0.26500
C1547       C  0.92434352  0.34440179  0.28949983    -0.15700
C1548       C  0.92940149  0.31341899  0.27985989     0.36600
N1549       N  0.93284615  0.30595620  0.24777038    -0.90000
H1550       H  0.93527328  0.26616268  0.29368752     0.17700
H1551       H  0.91472484  0.37249951  0.33033133     0.17700
N1552       N  0.91430843  0.33181204  0.37516698    -0.89000
H1553       H  0.91567312  0.28985916  0.24182985     0.35100
H1554       H  0.95438829  0.29550131  0.24453534     0.40200
H1555       H  0.89477776  0.31872653  0.38110643     0.39800
H1556       H  0.90784589  0.35479915  0.37834222     0.34700
C1557       C  0.11231908  0.37777082  0.09037257    -0.27000
C1558       C  0.10101339  0.40635996  0.10081222    -0.15100
C1559       C  0.11236159  0.43368627  0.08690427     0.35500
C1560       C  0.13469997  0.43157097  0.06351233    -0.26500
C1561       C  0.14582609  0.40280893  0.05318806    -0.15700
C1562       C  0.13413530  0.37566941  0.06675530     0.36600
N1563       N  0.14395599  0.34568695  0.05659553    -0.90000
H1564       H  0.10406371  0.35642968  0.10037612     0.17700
H1565       H  0.14320243  0.45268719  0.05322489     0.17700
N1566       N  0.10164197  0.46379666  0.09552830    -0.89000
H1567       H  0.12447358  0.33341765  0.04892341     0.35100
H1568       H  0.15298134  0.33409787  0.07549884     0.40200
H1569       H  0.10653943  0.46778215  0.11881053     0.39800
H1570       H  0.07773461  0.46473116  0.09202634     0.34700
C1571       C  0.10592237  0.37502631  0.88558903    -0.27000
C1572       C  0.09936110  0.40302811  0.87103143    -0.15100
C1573       C  0.11692892  0.42962149  0.87935805     0.35500
C1574       C  0.13929741  0.42776374  0.90245134    -0.26500
C1575       C  0.14520523  0.39993005  0.91752080    -0.15700
C1576       C  0.12858010  0.37315969  0.90842664     0.36600
N1577       N  0.13434375  0.34392338  0.92229229    -0.90000
H1578       H  0.09322077  0.35420321  0.87947602     0.17700
H1579       H  0.15225278  0.44844104  0.90852827     0.17700
N1580       N  0.11317344  0.45877410  0.86467446    -0.89000
H1581       H  0.14088704  0.32836422  0.90487205     0.35100
H1582       H  0.11365299  0.33594849  0.93209880     0.40200
H1583       H  0.11670415  0.45585012  0.84095539     0.39800
H1584       H  0.09078232  0.46680181  0.86895238     0.34700
C1585       C  0.92589988  0.42786078  0.07444843    -0.27000
C1586       C  0.92220342  0.40134009  0.05589300    -0.15100
C1587       C  0.94218735  0.37598659  0.05999373     0.35500
C1588       C  0.96508268  0.37780944  0.08235886    -0.26500
C1589       C  0.96849573  0.40417107  0.10114824    -0.15700
C1590       C  0.94871265  0.42948601  0.09705173     0.36600
N1591       N  0.95078385  0.45638133  0.11649018    -0.90000
H1592       H  0.91057404  0.44735681  0.07191347     0.17700
H1593       H  0.98025706  0.35822767  0.08510670     0.17700
N1594       N  0.94033259  0.34828619  0.04170801    -0.89000
H1595       H  0.92944663  0.45929975  0.12763910     0.35100
H1596       H  0.95462616  0.47550869  0.10247546     0.40200
H1597       H  0.91907625  0.33740234  0.04586975     0.39800
H1598       H  0.94217552  0.35401235  0.01843437     0.34700
C1599       C  0.92180281  0.43088714  0.90453069    -0.27000
C1600       C  0.91917215  0.40504058  0.92364868    -0.15100
C1601       C  0.93989590  0.38022023  0.91943945     0.35500
C1602       C  0.96174732  0.38124238  0.89551034    -0.26500
C1603       C  0.96414442  0.40677944  0.87606100    -0.15700
C1604       C  0.94405541  0.43205429  0.88073100     0.36600
N1605       N  0.94585575  0.45850525  0.86108697    -0.90000
H1606       H  0.90604164  0.45000978  0.90776654     0.17700
H1607       H  0.97746910  0.36206337  0.89241589     0.17700
N1608       N  0.93923393  0.35430507  0.93985250    -0.89000
H1609       H  0.92989813  0.47525399  0.86808803     0.35100
H1610       H  0.93933233  0.45132433  0.83893989     0.40200
H1611       H  0.94576437  0.36241171  0.96167937     0.39800
H1612       H  0.95569879  0.33789611  0.93325350     0.34700
C1613       C  0.09805417  0.58286461  0.07354910    -0.27000
C1614       C  0.09811558  0.60729520  0.09499483    -0.15100
C1615       C  0.12067579  0.63081776  0.09251195     0.35500
C1616       C  0.14258541  0.62955736  0.06857843    -0.26500
C1617       C  0.14258004  0.60505896  0.04708520    -0.15700
C1618       C  0.11980810  0.58148472  0.04969621     0.36600
N1619       N  0.11736132  0.55638699  0.02802107    -0.90000
H1620       H  0.08055594  0.56486266  0.07496120     0.17700
H1621       H  0.15997760  0.64764881  0.06711273     0.17700
N1622       N  0.12189900  0.65563996  0.11458702    -0.89000
H1623       H  0.13709530  0.54270121  0.02950499     0.35100
H1624       H  0.11565515  0.56532781  0.00581489     0.40200
H1625       H  0.11980672  0.67638401  0.10274026     0.39800
H1626       H  0.14367665  0.65545252  0.12501848     0.34700
C1627       C  0.93840979  0.63380010  0.05066159    -0.27000
C1628       C  0.91641046  0.60985637  0.04954955    -0.15100
C1629       C  0.91903657  0.58458864  0.06957912     0.35500
C1630       C  0.94348058  0.58413984  0.09064534    -0.26500
C1631       C  0.96496605  0.60852877  0.09227717    -0.15700
C1632       C  0.96291767  0.63325347  0.07154974     0.36600
N1633       N  0.98588219  0.65747313  0.07148849    -0.90000
H1634       H  0.93677878  0.65283697  0.03478994     0.17700
H1635       H  0.94512542  0.56515774  0.10657933     0.17700
N1636       N  0.89654003  0.55995326  0.06907229    -0.89000
H1637       H  0.98073603  0.67399449  0.05494296     0.35100
H1638       H  0.00696216  0.64761400  0.06484610     0.40200
H1639       H  0.87536076  0.56917429  0.07631878     0.39800
H1640       H  0.90223709  0.54297372  0.08496055     0.34700
C1641       C  0.13804016  0.58265180  0.89188909    -0.27000
C1642       C  0.14059286  0.60676332  0.91361672    -0.15100
C1643       C  0.11983212  0.63185978  0.91223235     0.35500
C1644       C  0.09767721  0.63250234  0.88907183    -0.26500
C1645       C  0.09524599  0.60860232  0.86715215    -0.15700
C1646       C  0.11570033  0.58324266  0.86874434     0.36600
N1647       N  0.11508218  0.55822203  0.84685918    -0.90000
H1648       H  0.15385837  0.56336118  0.89256187     0.17700
H1649       H  0.08192665  0.65185369  0.88849155     0.17700
N1650       N  0.11985986  0.65660094  0.93445567    -0.89000
H1651       H  0.11743202  0.56716526  0.82467959     0.35100
H1652       H  0.09392699  0.54653147  0.84876574     0.40200
H1653       H  0.14051521  0.66912904  0.93249868     0.39800
H1654       H  0.11799134  0.64733380  0.95654109     0.34700
C1655       C  0.94464075  0.63941381  0.87616438    -0.27000
C1656       C  0.96060856  0.61214696  0.86901817    -0.15100
C1657       C  0.95316828  0.58508031  0.88536104     0.35500
C1658       C  0.93023981  0.58590569  0.90851967    -0.26500
C1659       C  0.91459317  0.61337778  0.91592392    -0.15700
C1660       C  0.92182224  0.64029196  0.89916749     0.36600
N1661       N  0.90574994  0.66860786  0.90494892    -0.90000
H1662       H  0.94965645  0.66036543  0.86362858     0.17700
H1663       H  0.92507441  0.56501759  0.92108761     0.17700
N1664       N  0.96924193  0.55688127  0.87910894    -0.89000
H1665       H  0.89509339  0.67521628  0.88449275     0.35100
H1666       H  0.92207680  0.68555616  0.91092142     0.40200
H1667       H  0.95289189  0.54006054  0.87285398     0.39800
H1668       H  0.97982481  0.54990607  0.89947348     0.34700
C1669       C  0.93133029  0.68936011  0.27482838    -0.27000
C1670       C  0.93166105  0.65759047  0.28048237    -0.15100
C1671       C  0.93584491  0.64745548  0.31060548     0.35500
C1672       C  0.93812545  0.66886896  0.33501232    -0.26500
C1673       C  0.93593362  0.70096703  0.32994910    -0.15700
C1674       C  0.93392059  0.71098610  0.29904995     0.36600
N1675       N  0.93426136  0.74322634  0.29212345    -0.90000
H1676       H  0.92870504  0.69747130  0.25145500     0.17700
H1677       H  0.94168420  0.65959779  0.35761667     0.17700
N1678       N  0.93638208  0.61518393  0.31665372    -0.89000
H1679       H  0.91387571  0.74832513  0.28038575     0.35100
H1680       H  0.95295606  0.74751363  0.27732540     0.40200
H1681       H  0.91828850  0.61034642  0.33195640     0.39800
H1682       H  0.95750560  0.61033557  0.32705580     0.34700
C1683       C  0.23626801  0.62229669  0.16295213    -0.27000
C1684       C  0.22976373  0.60610248  0.13538917    -0.15100
C1685       C  0.20308663  0.58668729  0.13456300     0.35500
C1686       C  0.18145323  0.58898404  0.15802123    -0.26500
C1687       C  0.18592000  0.60880974  0.18344706    -0.15700
C1688       C  0.21528523  0.62276434  0.18749932     0.36600
N1689       N  0.22494503  0.63493054  0.21690514    -0.90000
H1690       H  0.25865980  0.63275530  0.16675584     0.17700
H1691       H  0.16095024  0.57444693  0.15659103     0.17700
N1692       N  0.19773826  0.56309391  0.11161443    -0.89000
H1693       H  0.24741805  0.64401791  0.21581937     0.35100
H1694       H  0.22558844  0.61651538  0.23224288     0.40200
H1695       H  0.21685183  0.54858763  0.10980446     0.39800
H1696       H  0.19243092  0.57250252  0.09034589     0.34700
C1697       C  0.38298495  0.33324619  0.88778249    -0.27000
C1698       C  0.37751720  0.30112290  0.88413387    -0.15100
C1699       C  0.34633804  0.29144592  0.88003247     0.35500
C1700       C  0.32243286  0.31331675  0.87763524     0.02300
C1701       C  0.32840463  0.34514449  0.88031834    -0.15700
C1702       C  0.35895024  0.35491704  0.88571377     0.36600
N1703       N  0.36591682  0.38711434  0.88815229    -0.90000
H1704       H  0.40566919  0.34231117  0.89302941     0.17700
H1705       H  0.29890290  0.30526091  0.87400445     0.17700
N1706       N  0.33864565  0.25927032  0.87860145    -0.89000
H1707       H  0.38182855  0.39244633  0.87076751     0.35100
H1708       H  0.37618933  0.39118265  0.90957536     0.40200
H1709       H  0.32768533  0.25478049  0.85756975     0.39800
H1710       H  0.32284983  0.25457223  0.89631383     0.34700
C1711       C  0.40697526  0.07842293  0.09904702    -0.27000
C1712       C  0.43540909  0.06885633  0.11110230    -0.15100
C1713       C  0.46287192  0.08323295  0.10036024     0.35500
C1714       C  0.46129987  0.10605496  0.07757666    -0.26500
C1715       C  0.43277998  0.11501416  0.06504011    -0.15700
C1716       C  0.40535362  0.10108665  0.07641020     0.36600
N1717       N  0.37554966  0.10964692  0.06509201    -0.90000
H1718       H  0.38550019  0.06807260  0.10698609     0.17700
H1719       H  0.48264511  0.11661050  0.06955551     0.17700
N1720       N  0.49244593  0.07481042  0.11230960    -0.89000
H1721       H  0.36224287  0.11758222  0.08373473     0.35100
H1722       H  0.36477876  0.08990409  0.05596006     0.40200
H1723       H  0.50296125  0.09462809  0.12157449     0.39800
H1724       H  0.50613289  0.06698896  0.09390379     0.34700
C1725       C  0.36018835  0.91214801  0.28732661    -0.27000
C1726       C  0.38518398  0.89167660  0.28945575    -0.15100
C1727       C  0.38821417  0.87440246  0.31675477     0.35500
C1728       C  0.36544293  0.87630428  0.34016025    -0.26500
C1729       C  0.33948689  0.89546510  0.33726327    -0.15700
C1730       C  0.33750213  0.91420164  0.31081656     0.36600
N1731       N  0.31208989  0.93479756  0.30680525    -0.90000
H1732       H  0.35766673  0.92584070  0.26676277     0.17700
H1733       H  0.36743772  0.86182170  0.36023597     0.17700
N1734       N  0.41394980  0.85426975  0.32097349    -0.89000
H1735       H  0.31180487  0.95030189  0.32545363     0.35100
H1736       H  0.29149682  0.92196941  0.30719044     0.40200
H1737       H  0.41392236  0.83781381  0.30316356     0.39800
H1738       H  0.43427986  0.86738107  0.31915299     0.34700
C1739       C  0.46125645  0.08806783  0.88696671    -0.27000
C1740       C  0.43605420  0.06763227  0.88391437    -0.15100
C1741       C  0.41045781  0.07061619  0.90410015     0.35500
C1742       C  0.41040269  0.09389338  0.92658824    -0.26500
C1743       C  0.43542903  0.11444906  0.92959196    -0.15700
C1744       C  0.46103356  0.11161920  0.90943166     0.36600
N1745       N  0.48632182  0.13315150  0.91093572    -0.90000
H1746       H  0.48085990  0.08632469  0.87134673     0.17700
H1747       H  0.39062701  0.09564357  0.94199896     0.17700
N1748       N  0.38456448  0.04980530  0.90224720    -0.89000
H1749       H  0.48822506  0.14395235  0.88956831     0.35100
H1750       H  0.50665291  0.12077767  0.91456312     0.40200
H1751       H  0.36464701  0.06276182  0.89839141     0.39800
H1752       H  0.38205922  0.03896281  0.92353073     0.34700
C1753       C  0.41449262  0.90991415  0.05896294    -0.27000
C1754       C  0.43838091  0.88822926  0.05725886    -0.15100
C1755       C  0.46317151  0.89028803  0.07836828     0.35500
C1756       C  0.46315946  0.91394202  0.10092925    -0.26500
C1757       C  0.43868791  0.93508808  0.10297858    -0.15700
C1758       C  0.41442738  0.93337497  0.08129775     0.36600
N1759       N  0.38980937  0.95558885  0.08184920    -0.90000
H1760       H  0.39571312  0.90876248  0.04250781     0.17700
H1761       H  0.48169982  0.91517210  0.11764514     0.17700
N1762       N  0.48767313  0.86799987  0.07746775    -0.89000
H1763       H  0.37355141  0.95068230  0.06466522     0.35100
H1764       H  0.39953016  0.97708548  0.07663905     0.40200
H1765       H  0.47802553  0.84661074  0.08322245     0.39800
H1766       H  0.50425640  0.87314519  0.09427594     0.34700
C1767       C  0.40964523  0.88941031  0.90276470    -0.27000
C1768       C  0.43474291  0.88671530  0.92291384    -0.15100
C1769       C  0.46064154  0.90636548  0.91960599     0.35500
C1770       C  0.46058571  0.92898303  0.89687289    -0.26500
C1771       C  0.43497158  0.93250123  0.87749086    -0.15700
C1772       C  0.40956063  0.91191489  0.87986811     0.36600
N1773       N  0.38385645  0.91383185  0.85904135    -0.90000
H1774       H  0.39002827  0.87382005  0.90483586     0.17700
H1775       H  0.48031424  0.94447395  0.89506203     0.17700
N1776       N  0.48652736  0.90425691  0.93998092    -0.89000
H1777       H  0.36732182  0.89675817  0.86376089     0.35100
H1778       H  0.39224493  0.90928682  0.83680993     0.40200
H1779       H  0.48930411  0.92555724  0.95124150     0.39800
H1780       H  0.50636726  0.90020304  0.92665109     0.34700
C1781       C  0.61232427  0.09802211  0.06831349    -0.27000
C1782       C  0.64020134  0.11431169  0.06344180    -0.15100
C1783       C  0.66608271  0.10742859  0.08184422     0.35500
C1784       C  0.66392743  0.08407244  0.10371387    -0.26500
C1785       C  0.63632170  0.06734504  0.10817128    -0.15700
C1786       C  0.61018180  0.07468257  0.09047765     0.36600
N1787       N  0.58164868  0.05812537  0.09438173    -0.90000
H1788       H  0.59214113  0.10306155  0.05457394     0.17700
H1789       H  0.68412065  0.07924050  0.11753983     0.17700
N1790       N  0.69454596  0.12439303  0.07893982    -0.89000
H1791       H  0.57575390  0.04797797  0.07320535     0.35100
H1792       H  0.56449068  0.07406880  0.10027560     0.40200
H1793       H  0.71219292  0.10878259  0.07360771     0.39800
H1794       H  0.69954259  0.13464303  0.10030479     0.34700
C1795       C  0.60525944  0.90984681  0.06213324    -0.27000
C1796       C  0.63074277  0.89043566  0.05764721    -0.15100
C1797       C  0.65579950  0.89195729  0.07835231     0.35500
C1798       C  0.65532972  0.91327105  0.10256934    -0.26500
C1799       C  0.63039636  0.93337604  0.10669923    -0.15700
C1800       C  0.60485532  0.93145563  0.08629556     0.36600
N1801       N  0.57881287  0.95167020  0.08869169    -0.90000
H1802       H  0.58588095  0.90873414  0.04636303     0.17700
H1803       H  0.67481772  0.91408618  0.11822449     0.17700
N1804       N  0.68171986  0.87165161  0.07519538    -0.89000
H1805       H  0.58673825  0.97450199  0.08782646     0.35100
H1806       H  0.56757178  0.94794099  0.10972368     0.40200
H1807       H  0.68393284  0.85941364  0.09568935     0.39800
H1808       H  0.70169175  0.88514470  0.07242726     0.34700
C1809       C  0.61836119  0.10095211  0.92142470    -0.27000
C1810       C  0.64566839  0.11783260  0.92713296    -0.15100
C1811       C  0.67192766  0.11226020  0.90838032     0.35500
C1812       C  0.67059354  0.08963015  0.88501263    -0.26500
C1813       C  0.64340281  0.07245844  0.87965340    -0.15700
C1814       C  0.61700764  0.07838838  0.89805593     0.36600
N1815       N  0.58895963  0.06104113  0.89374649    -0.90000
H1816       H  0.59794510  0.10483507  0.93554681     0.17700
H1817       H  0.69094215  0.08571986  0.87079594     0.17700
N1818       N  0.69983754  0.12985893  0.91248327    -0.89000
H1819       H  0.57117625  0.07652602  0.88907044     0.35100
H1820       H  0.58359830  0.04999604  0.91442181     0.40200
H1821       H  0.70483349  0.14104642  0.89179406     0.39800
H1822       H  0.71783173  0.11452897  0.91686949     0.34700
C1823       C  0.60789291  0.93419963  0.89559490    -0.27000
C1824       C  0.63374184  0.93609912  0.87584279    -0.15100
C1825       C  0.65714853  0.91364203  0.87795039     0.35500
C1826       C  0.65484465  0.89056512  0.90007850    -0.26500
C1827       C  0.62975315  0.88927150  0.92065224    -0.15700
C1828       C  0.60584283  0.91125873  0.91834187     0.36600
N1829       N  0.58026659  0.91099660  0.93970494    -0.90000
H1830       H  0.58985220  0.95135646  0.89408565     0.17700
H1831       H  0.67311790  0.87360527  0.90130073     0.17700
N1832       N  0.68332262  0.91389623  0.85749794    -0.89000
H1833       H  0.56470149  0.92860558  0.93472921     0.35100
H1834       H  0.58908718  0.91596943  0.96162885     0.40200
H1835       H  0.68406947  0.89262065  0.84588795     0.39800
H1836       H  0.70335933  0.91593681  0.87081516     0.34700
C1837       C  0.66635945  0.18070911  0.20067777    -0.27000
C1838       C  0.64263642  0.15846502  0.19977821    -0.15100
C1839       C  0.62036994  0.16023542  0.17622866     0.35500
C1840       C  0.62113189  0.18485648  0.15584828    -0.26500
C1841       C  0.64415523  0.20810239  0.15733096    -0.15700
C1842       C  0.66750394  0.20521425  0.18024636     0.36600
N1843       N  0.69352632  0.22541643  0.18363879    -0.90000
H1844       H  0.68529179  0.17914712  0.21661054     0.17700
H1845       H  0.60365184  0.18540503  0.13801092     0.17700
N1846       N  0.59706108  0.13675203  0.17256939    -0.89000
H1847       H  0.68608283  0.24702182  0.19143601     0.35100
H1848       H  0.70636184  0.22586434  0.16315541     0.40200
H1849       H  0.59933706  0.12708987  0.15047031     0.39800
H1850       H  0.57534681  0.14720375  0.17413990     0.34700
C1851       C  0.64130676  0.42170338  0.92122492    -0.27000
C1852       C  0.64120208  0.44140482  0.89576427    -0.15100
C1853       C  0.61995931  0.43606031  0.87170508     0.35500
C1854       C  0.59988759  0.41078209  0.87309496    -0.26500
C1855       C  0.60034042  0.39072939  0.89819796    -0.15700
C1856       C  0.62111538  0.39631992  0.92257772     0.36600
N1857       N  0.62254794  0.37579699  0.94815694    -0.90000
H1858       H  0.65773571  0.42542766  0.93972506     0.17700
H1859       H  0.58361983  0.40702947  0.85444975     0.17700
N1860       N  0.61833714  0.45643730  0.84598738    -0.89000
H1861       H  0.64501646  0.36702773  0.94920067     0.35100
H1862       H  0.61848583  0.38864157  0.96830991     0.40200
H1863       H  0.62229016  0.44351784  0.82585297     0.39800
H1864       H  0.59588217  0.46524095  0.84502771     0.34700
C1865       C  0.59588538  0.60021236  0.86748988    -0.27000
C1866       C  0.59332823  0.62038203  0.89283886    -0.15100
C1867       C  0.61414368  0.61783257  0.91752730     0.35500
C1868       C  0.63714380  0.59515672  0.91630721    -0.26500
C1869       C  0.63995516  0.57520843  0.89061946    -0.15700
C1870       C  0.61881866  0.57795107  0.86594028     0.36600
N1871       N  0.61942833  0.55828471  0.83914798    -0.90000
H1872       H  0.57986566  0.60173353  0.84841679     0.17700
H1873       H  0.65319092  0.59355931  0.93533753     0.17700
N1874       N  0.61267297  0.63868929  0.94334994    -0.89000
H1875       H  0.61791356  0.53528117  0.84602830     0.35100
H1876       H  0.64003921  0.56206953  0.82699577     0.40200
H1877       H  0.60971931  0.62568282  0.96331498     0.39800
H1878       H  0.63392927  0.65031167  0.94491864     0.34700
C1879       C  0.44354211  0.61304204  0.86254063    -0.27000
C1880       C  0.46012384  0.61945790  0.88955191    -0.15100
C1881       C  0.45420146  0.60216880  0.91627698     0.35500
C1882       C  0.43295513  0.57775295  0.91504126    -0.26500
C1883       C  0.41736821  0.57050173  0.88762324    -0.15700
C1884       C  0.42184699  0.58905546  0.86136399     0.36600
N1885       N  0.40414790  0.58380042  0.83375799    -0.90000
H1886       H  0.44732468  0.62697165  0.84226137     0.17700
H1887       H  0.42918315  0.56402945  0.93546456     0.17700
N1888       N  0.47009888  0.60880918  0.94450223    -0.89000
H1889       H  0.41072951  0.59924843  0.81654278     0.35100
H1890       H  0.38098820  0.58853244  0.83905508     0.40200
H1891       H  0.45347672  0.61383880  0.96140907     0.39800
H1892       H  0.48188861  0.58897265  0.95107582     0.34700
C1893       C  0.44131988  0.57107532  0.05899537    -0.27000
C1894       C  0.42140551  0.56847565  0.08458041    -0.15100
C1895       C  0.42516979  0.58883268  0.11003989     0.35500
C1896       C  0.44951387  0.61021616  0.10991143    -0.26500
C1897       C  0.46939521  0.61288902  0.08441696    -0.15700
C1898       C  0.46525421  0.59316798  0.05869768     0.36600
N1899       N  0.48563601  0.59497778  0.03262439    -0.90000
H1900       H  0.43865284  0.55561334  0.03935609     0.17700
H1901       H  0.45215915  0.62581101  0.12945094     0.17700
N1902       N  0.40376943  0.58843241  0.13558390    -0.89000
H1903       H  0.47223289  0.59931109  0.01319056     0.35100
H1904       H  0.49607440  0.57346276  0.02949814     0.40200
H1905       H  0.38222519  0.59534048  0.12730598     0.39800
H1906       H  0.41015127  0.60463191  0.15248601     0.34700
C1907       C  0.62178892  0.56765722  0.10580826    -0.27000
C1908       C  0.64514339  0.56824283  0.08336613    -0.15100
C1909       C  0.64591708  0.59187217  0.06129517     0.35500
C1910       C  0.62349624  0.61510126  0.06286245    -0.26500
C1911       C  0.60085254  0.61510860  0.08621964    -0.15700
C1912       C  0.59967945  0.59065175  0.10748847     0.36600
N1913       N  0.57591891  0.58793088  0.13052704    -0.90000
H1914       H  0.62085126  0.54920286  0.12246614     0.17700
H1915       H  0.62418615  0.63367624  0.04635431     0.17700
N1916       N  0.66987629  0.59276923  0.03817020    -0.89000
H1917       H  0.55429675  0.58876896  0.11983318     0.35100
H1918       H  0.57803037  0.60614438  0.14637093     0.40200
H1919       H  0.69089257  0.59650531  0.04949305     0.39800
H1920       H  0.66682380  0.61156403  0.02362638     0.34700
C1921       C  0.64275207  0.41763029  0.06459407    -0.27000
C1922       C  0.64675766  0.43669623  0.09077359    -0.15100
C1923       C  0.62576570  0.43333744  0.11585004     0.35500
C1924       C  0.60234655  0.41107837  0.11439380    -0.26500
C1925       C  0.59876491  0.39147700  0.08864829    -0.15700
C1926       C  0.61916487  0.39521788  0.06321679     0.36600
N1927       N  0.61709534  0.37637238  0.03595792    -0.90000
H1928       H  0.65827588  0.41989188  0.04502496     0.17700
H1929       H  0.58682173  0.40906250  0.13400057     0.17700
N1930       N  0.62696792  0.45238605  0.14305478    -0.89000
H1931       H  0.59548372  0.37973781  0.02585080     0.35100
H1932       H  0.61928560  0.35324433  0.04211545     0.40200
H1933       H  0.62539854  0.47553019  0.13675063     0.39800
H1934       H  0.64778279  0.44852703  0.15450648     0.34700
C1935       C  0.64704680  0.86932800  0.40605111    -0.27000
C1936       C  0.65053805  0.89597175  0.42440446    -0.15100
C1937       C  0.62981568  0.92078519  0.42070482     0.35500
C1938       C  0.60679289  0.91867250  0.39806511    -0.26500
C1939       C  0.60328279  0.89198223  0.37977229    -0.15700
C1940       C  0.62360106  0.86702579  0.38398947     0.36600
N1941       N  0.62097986  0.83947056  0.36558799    -0.90000
H1942       H  0.66272308  0.85012584  0.40866451     0.17700
H1943       H  0.59104262  0.93775959  0.39518288     0.17700
N1944       N  0.63165892  0.94771863  0.44033202    -0.89000
H1945       H  0.61762005  0.82086735  0.38040082     0.35100
H1946       H  0.64194688  0.83620343  0.35385968     0.40200
H1947       H  0.62609640  0.94085469  0.46273578     0.39800
H1948       H  0.61505252  0.96394187  0.43418215     0.34700
C1949       C  0.61178596  0.87321965  0.59101417    -0.27000
C1950       C  0.59880405  0.90126709  0.60096201    -0.15100
C1951       C  0.61028474  0.92898121  0.58826082     0.35500
C1952       C  0.63427483  0.92804171  0.56620421    -0.26500
C1953       C  0.64731172  0.89991901  0.55632581    -0.15700
C1954       C  0.63576023  0.87210850  0.56911168     0.36600
N1955       N  0.64843815  0.84267805  0.56025940    -0.90000
H1956       H  0.60349054  0.85175309  0.60069231     0.17700
H1957       H  0.64272745  0.94959642  0.55682483     0.17700
N1958       N  0.59790683  0.95819800  0.59768488    -0.89000
H1959       H  0.64106022  0.83782996  0.53779060     0.35100
H1960       H  0.63935377  0.82504568  0.57393147     0.40200
H1961       H  0.61601769  0.97167464  0.60660182     0.39800
H1962       H  0.58946079  0.96915288  0.57813220     0.34700
C1963       C  0.46307612  0.92386017  0.58577365    -0.27000
C1964       C  0.46327815  0.89958516  0.60685979    -0.15100
C1965       C  0.44054692  0.87619201  0.60459252     0.35500
C1966       C  0.41896749  0.87673617  0.58062121    -0.26500
C1967       C  0.41931780  0.90042838  0.55881690    -0.15700
C1968       C  0.44154071  0.92453186  0.56181290     0.36600
N1969       N  0.44374393  0.94932543  0.54034449    -0.90000
H1970       H  0.48042655  0.94200972  0.58731826     0.17700
H1971       H  0.40169374  0.85850760  0.57920842     0.17700
N1972       N  0.43887730  0.85211602  0.62688129    -0.89000
H1973       H  0.42342807  0.96223739  0.54153600     0.35100
H1974       H  0.44634946  0.94004728  0.51812763     0.40200
H1975       H  0.41686403  0.85266411  0.63706011     0.39800
H1976       H  0.44111755  0.83098231  0.61524411     0.34700
C1977       C  0.15338824  0.62015978  0.39570174    -0.27000
C1978       C  0.12965501  0.62131569  0.41781926    -0.15100
C1979       C  0.10381482  0.60134070  0.41502406     0.35500
C1980       C  0.10323476  0.57930286  0.39097747    -0.26500
C1981       C  0.12786796  0.57720950  0.36985164    -0.15700
C1982       C  0.15237141  0.59894119  0.37126402     0.36600
N1983       N  0.17607235  0.59946146  0.34780042    -0.90000
H1984       H  0.17259414  0.63634487  0.39716110     0.17700
H1985       H  0.08416749  0.56296869  0.38947372     0.17700
N1986       N  0.07885252  0.60282686  0.43704470    -0.89000
H1987       H  0.19226992  0.61698095  0.35227013     0.35100
H1988       H  0.16546232  0.60494924  0.32697577     0.40200
H1989       H  0.08766701  0.59646625  0.45843791     0.39800
H1990       H  0.06155761  0.58672767  0.43145965     0.34700
C1991       C  0.15696301  0.61964366  0.57263278    -0.27000
C1992       C  0.13116010  0.62421147  0.55376316    -0.15100
C1993       C  0.10465915  0.60544587  0.55797030     0.35500
C1994       C  0.10464882  0.58230158  0.58049431    -0.26500
C1995       C  0.13091176  0.57715170  0.59870591    -0.15700
C1996       C  0.15708495  0.59654567  0.59493986     0.36600
N1997       N  0.18381190  0.59329309  0.61402877    -0.90000
H1998       H  0.17736321  0.63413381  0.57009684     0.17700
H1999       H  0.08427829  0.56780333  0.58314293     0.17700
N2000       N  0.07811639  0.60904340  0.53875640    -0.89000
H2001       H  0.18765859  0.61426601  0.62560455     0.35100
H2002       H  0.20291408  0.58901878  0.59972733     0.40200
H2003       H  0.05916594  0.61385506  0.55302506     0.39800
H2004       H  0.07384351  0.58803471  0.52740415     0.34700
C2005       C  0.10556530  0.41987978  0.59701533    -0.27000
C2006       C  0.12947485  0.44199284  0.59799523    -0.15100
C2007       C  0.15278756  0.44165123  0.57521191     0.35500
C2008       C  0.15218483  0.41904973  0.55218716    -0.26500
C2009       C  0.12875260  0.39653155  0.55134663    -0.15700
C2010       C  0.10512359  0.39679621  0.57398746     0.36600
N2011       N  0.08143955  0.37330709  0.57407088    -0.90000
H2012       H  0.08773633  0.42012254  0.61469826     0.17700
H2013       H  0.17026331  0.41922627  0.53474151     0.17700
N2014       N  0.17682246  0.46463850  0.57493429    -0.89000
H2015       H  0.06582289  0.37705612  0.59221838     0.35100
H2016       H  0.09219522  0.35227084  0.57840394     0.40200
H2017       H  0.17587855  0.47618539  0.55393535     0.39800
H2018       H  0.19814468  0.45343105  0.57607751     0.34700
C2019       C  0.44757209  0.08682226  0.57219158    -0.27000
C2020       C  0.42747242  0.11196246  0.57008958    -0.15100
C2021       C  0.43072994  0.13708407  0.59104172     0.35500
C2022       C  0.45404661  0.13661019  0.61309793    -0.26500
C2023       C  0.47432677  0.11160796  0.61504013    -0.15700
C2024       C  0.47095146  0.08637491  0.59423424     0.36600
N2025       N  0.49140543  0.06047761  0.59408908    -0.90000
H2026       H  0.44551315  0.06753641  0.55616845     0.17700
H2027       H  0.45608672  0.15591123  0.62910454     0.17700
N2028       N  0.41033924  0.16302769  0.59117684    -0.89000
H2029       H  0.48884740  0.04868144  0.61481652     0.35100
H2030       H  0.51420592  0.06848927  0.59188563     0.40200
H2031       H  0.38749531  0.15503894  0.59299275     0.39800
H2032       H  0.41322448  0.17510042  0.57065347     0.34700
C2033       C  0.63646478  0.13941353  0.56918203    -0.27000
C2034       C  0.64869137  0.11100391  0.55935290    -0.15100
C2035       C  0.63716699  0.08341976  0.57239161     0.35500
C2036       C  0.61579572  0.08523310  0.59670486    -0.26500
C2037       C  0.60487519  0.11379711  0.60762733    -0.15700
C2038       C  0.61467886  0.14108833  0.59296313     0.36600
N2039       N  0.60281858  0.17064527  0.60205426    -0.90000
H2040       H  0.64428365  0.16076304  0.55886146     0.17700
H2041       H  0.60775897  0.06407254  0.60722323     0.17700
N2042       N  0.64741169  0.05372538  0.56143484    -0.89000
H2043       H  0.59248309  0.18056113  0.58284298     0.35100
H2044       H  0.62147273  0.18468503  0.60870947     0.40200
H2045       H  0.63902791  0.05074214  0.53901618     0.39800
H2046       H  0.63755789  0.03599618  0.57446194     0.34700
C2047       C  0.64551694  0.13273910  0.41166074    -0.27000
C2048       C  0.65274955  0.10609564  0.42811340    -0.15100
C2049       C  0.63715990  0.07817784  0.42104844     0.35500
C2050       C  0.61388217  0.07779017  0.39875853    -0.26500
C2051       C  0.60591104  0.10470678  0.38309206    -0.15700
C2052       C  0.62257373  0.13227092  0.38911227     0.36600
N2053       N  0.61674377  0.15979199  0.37215812    -0.90000
H2054       H  0.65787799  0.15417727  0.41608847     0.17700
H2055       H  0.60176431  0.05628189  0.39403685     0.17700
N2056       N  0.64461728  0.05017528  0.43648176    -0.89000
H2057       H  0.63731426  0.16639216  0.36114624     0.35100
H2058       H  0.61066879  0.17726092  0.38784153     0.40200
H2059       H  0.65142698  0.03390742  0.41982945     0.39800
H2060       H  0.62454917  0.04191038  0.44727042     0.34700
C2061       C  0.90810678  0.40789417  0.55775016    -0.27000
C2062       C  0.93655384  0.39398328  0.55038845    -0.15100
C2063       C  0.96306350  0.40260963  0.56764989     0.35500
C2064       C  0.96037586  0.42501101  0.59137091    -0.26500
C2065       C  0.93177296  0.43870361  0.59874485    -0.15700
C2066       C  0.90543589  0.42989079  0.58146992     0.36600
N2067       N  0.87575005  0.44326520  0.58762299    -0.90000
H2068       H  0.88742490  0.40174883  0.54497422     0.17700
H2069       H  0.98077074  0.43150073  0.60442175     0.17700
N2070       N  0.99254164  0.38858035  0.56140181    -0.89000
H2071       H  0.86020480  0.42546767  0.59293095     0.35100
H2072       H  0.86813690  0.45382335  0.56751031     0.40200
H2073       H  0.99082066  0.36544284  0.56780569     0.39800
H2074       H  0.00977973  0.39848151  0.57525586     0.34700
C2075       C  0.90886157  0.59938768  0.55507163    -0.27000
C2076       C  0.93542260  0.61804055  0.55337055    -0.15100
C2077       C  0.96063421  0.61232962  0.57288203     0.35500
C2078       C  0.95858654  0.58840727  0.59404351    -0.26500
C2079       C  0.93159958  0.57029959  0.59642142    -0.15700
C2080       C  0.90653158  0.57579935  0.57633082     0.36600
N2081       N  0.87853544  0.55783308  0.57648629    -0.90000
H2082       H  0.88951781  0.60315965  0.53977498     0.17700
H2083       H  0.97794560  0.58469663  0.60933075     0.17700
N2084       N  0.98804456  0.63109843  0.57188896    -0.89000
H2085       H  0.86683669  0.56147332  0.59734153     0.35100
H2086       H  0.88409315  0.53450779  0.57381319     0.40200
H2087       H  0.00679038  0.61662296  0.56730719     0.39800
H2088       H  0.99125221  0.64109158  0.59371062     0.34700
C2089       C  0.96709271  0.60886277  0.40780868    -0.27000
C2090       C  0.93915329  0.61810155  0.42185708    -0.15100
C2091       C  0.91127635  0.60344877  0.41250805     0.35500
C2092       C  0.91185299  0.58025634  0.38998707    -0.26500
C2093       C  0.93948927  0.57126884  0.37548880    -0.15700
C2094       C  0.96751316  0.58572015  0.38470440     0.36600
N2095       N  0.99631085  0.57764021  0.37029382    -0.90000
H2096       H  0.98870721  0.61985290  0.41444971     0.17700
H2097       H  0.89001704  0.56965588  0.38344801     0.17700
N2098       N  0.88195207  0.61198956  0.42556420    -0.89000
H2099       H  0.01142742  0.57028187  0.38741446     0.35100
H2100       H  0.00579512  0.59753091  0.36048309     0.40200
H2101       H  0.87188885  0.59242531  0.43546080     0.39800
H2102       H  0.86763066  0.61923767  0.40772341     0.34700
C2103       C  0.35100091  0.87172313  0.69579842    -0.27000
C2104       C  0.37671870  0.89186278  0.69475281    -0.15100
C2105       C  0.37863333  0.91261207  0.66984513     0.35500
C2106       C  0.35530029  0.91322798  0.64760573    -0.26500
C2107       C  0.32925730  0.89347229  0.64860846    -0.15700
C2108       C  0.32744920  0.87232629  0.67336818     0.36600
N2109       N  0.30182361  0.85163409  0.67680205    -0.90000
H2110       H  0.34833932  0.85540376  0.71417882     0.17700
H2111       H  0.35755302  0.92979008  0.62917536     0.17700
N2112       N  0.40426826  0.93364514  0.66713841    -0.89000
H2113       H  0.29135442  0.85600287  0.69819106     0.35100
H2114       H  0.31028397  0.82908493  0.67678904     0.40200
H2115       H  0.39561487  0.95611681  0.66722315     0.39800
H2116       H  0.41507743  0.92964328  0.64585681     0.34700
C2117       C  0.70318592  0.36026406  0.87581786    -0.27000
C2118       C  0.72842664  0.36059881  0.89600793    -0.15100
C2119       C  0.72995975  0.33812793  0.91929640     0.35500
C2120       C  0.70752517  0.31456274  0.92052390    -0.26500
C2121       C  0.68377355  0.31279620  0.89864215    -0.15700
C2122       C  0.68095959  0.33661308  0.87685664     0.36600
N2123       N  0.65634902  0.33667709  0.85483090    -0.90000
H2124       H  0.70170399  0.37753434  0.85802364     0.17700
H2125       H  0.71003548  0.29625504  0.93711504     0.17700
N2126       N  0.75512502  0.33753546  0.94063071    -0.89000
H2127       H  0.63533106  0.33574801  0.86686426     0.35100
H2128       H  0.65797398  0.31697572  0.84083634     0.40200
H2129       H  0.75529658  0.35837591  0.95299730     0.39800
H2130       H  0.77584229  0.33580517  0.92815909     0.34700
C2131       C  0.85727049  0.81913902  0.57127203    -0.27000
C2132       C  0.87578451  0.81110917  0.59678570    -0.15100
C2133       C  0.87165260  0.82847715  0.62441391     0.35500
C2134       C  0.84860030  0.85133896  0.62651161    -0.26500
C2135       C  0.82998680  0.85843821  0.60115150    -0.15700
C2136       C  0.83472585  0.84232110  0.57329340     0.36600
N2137       N  0.81616294  0.84892413  0.54694753    -0.90000
H2138       H  0.86009309  0.80833349  0.54901806     0.17700
H2139       H  0.84549029  0.86390431  0.64804602     0.17700
N2140       N  0.89120433  0.82332053  0.65038704    -0.89000
H2141       H  0.80464743  0.82865385  0.54023004     0.35100
H2142       H  0.83094095  0.85547427  0.52896730     0.40200
H2143       H  0.87715018  0.81747545  0.66916148     0.39800
H2144       H  0.90261849  0.84404493  0.65574547     0.34700
C2145       C  0.92011125  0.68390543  0.63083143    -0.27000
C2146       C  0.92670971  0.71441534  0.64035622    -0.15100
C2147       C  0.93347156  0.72005826  0.67182962     0.35500
C2148       C  0.93240294  0.69574108  0.69301367    -0.26500
C2149       C  0.92447623  0.66549441  0.68380683    -0.15700
C2150       C  0.91853425  0.65962932  0.65224581     0.36600
N2151       N  0.90944054  0.62953119  0.64165635    -0.90000
H2152       H  0.91475669  0.67915697  0.60684938     0.17700
H2153       H  0.93689018  0.70068813  0.71714001     0.17700
N2154       N  0.94144542  0.75033449  0.68293807    -0.89000
H2155       H  0.88913550  0.62317436  0.65326648     0.35100
H2156       H  0.92678867  0.61409952  0.64774034     0.40200
H2157       H  0.92288608  0.76507373  0.67899127     0.39800
H2158       H  0.96059615  0.75824233  0.67037836     0.34700
C2159       C  0.87638139  0.85032307  0.37971180    -0.27000
C2160       C  0.84434463  0.84442367  0.38435677    -0.15100
C2161       C  0.83496345  0.81272227  0.38624651     0.35500
C2162       C  0.85710999  0.78918073  0.38431534    -0.26500
C2163       C  0.88867392  0.79580537  0.38063421    -0.15700
C2164       C  0.89830551  0.82656862  0.37775210     0.36600
N2165       N  0.93040126  0.83359121  0.37195598    -0.90000
H2166       H  0.88531235  0.87325297  0.37695439     0.17700
H2167       H  0.84956242  0.76533980  0.38594178     0.17700
N2168       N  0.80330194  0.80313896  0.39001777    -0.89000
H2169       H  0.93368568  0.85733983  0.36961993     0.35100
H2170       H  0.93633612  0.82374800  0.35062724     0.40200
H2171       H  0.79005291  0.81061862  0.37159086     0.39800
H2172       H  0.79430392  0.81170842  0.41070742     0.34700
C2173       C  0.71933178  0.90680009  0.34972790    -0.27000
C2174       C  0.74876025  0.89660304  0.34034696    -0.15100
C2175       C  0.75335009  0.88940656  0.30867834     0.35500
C2176       C  0.72801316  0.88913058  0.28832604    -0.26500
C2177       C  0.69787057  0.89693475  0.29807087    -0.15700
C2178       C  0.69438775  0.90850222  0.32878052     0.36600
N2179       N  0.66597181  0.92272000  0.33859562    -0.90000
H2180       H  0.71567396  0.91363857  0.37355465     0.17700
H2181       H  0.73224648  0.88364546  0.26428291     0.17700
N2182       N  0.78392857  0.88336944  0.29688081    -0.89000
H2183       H  0.66734045  0.93002354  0.36160610     0.35100
H2184       H  0.66309625  0.94260641  0.32554355     0.40200
H2185       H  0.79705701  0.90355606  0.29975947     0.39800
H2186       H  0.78340166  0.87857087  0.27320918     0.34700
C2187       C  0.66206563  0.81911662  0.78576827    -0.27000
C2188       C  0.64357754  0.84546640  0.79057386    -0.15100
C2189       C  0.62419752  0.84655729  0.81680073     0.35500
C2190       C  0.62582571  0.82348799  0.83860500    -0.26500
C2191       C  0.64499164  0.79757376  0.83460300    -0.15700
C2192       C  0.66250496  0.79500812  0.80708090     0.36600
N2193       N  0.67936828  0.76770496  0.79938691    -0.90000
H2194       H  0.67512670  0.81584791  0.76474892     0.17700
H2195       H  0.61081315  0.82535696  0.85866330     0.17700
N2196       N  0.60202145  0.87072647  0.82110522    -0.89000
H2197       H  0.70255391  0.77385982  0.79577927     0.35100
H2198       H  0.67063292  0.75864902  0.77871245     0.40200
H2199       H  0.60645190  0.88169032  0.84223295     0.39800
H2200       H  0.57996153  0.86068699  0.82233252     0.34700
C2201       C  0.70161716  0.91006794  0.64466498    -0.27000
C2202       C  0.73301440  0.90397577  0.65113794    -0.15100
C2203       C  0.74157864  0.90057575  0.68232589     0.35500
C2204       C  0.71864346  0.89902412  0.70520379    -0.26500
C2205       C  0.68717517  0.90177336  0.69781681    -0.15700
C2206       C  0.67882683  0.90843978  0.66756778     0.36600
N2207       N  0.64699824  0.91184206  0.65958785    -0.90000
H2208       H  0.69410266  0.91643688  0.62195415     0.17700
H2209       H  0.72550247  0.89539527  0.72887681     0.17700
N2210       N  0.77348833  0.89888833  0.69098278    -0.89000
H2211       H  0.64172538  0.89437908  0.64370113     0.35100
H2212       H  0.64434649  0.93319284  0.64898587     0.40200
H2213       H  0.77681253  0.87807968  0.70242416     0.39800
H2214       H  0.77812886  0.91693514  0.70652794     0.34700
C2215       C  0.87132845  0.37695227  0.81152864    -0.27000
C2216       C  0.86701141  0.39607568  0.78583464    -0.15100
C2217       C  0.83665083  0.40745717  0.78095373     0.35500
C2218       C  0.81505040  0.40659893  0.80514131    -0.26500
C2219       C  0.82211307  0.39313787  0.83361021    -0.15700
C2220       C  0.84888820  0.37460788  0.83494244     0.36600
N2221       N  0.85307655  0.35319220  0.85961172    -0.90000
H2222       H  0.89211034  0.36336218  0.81341144     0.17700
H2223       H  0.79254403  0.41677395  0.80155564     0.17700
N2224       N  0.82635233  0.41906927  0.75188061    -0.89000
H2225       H  0.87395224  0.34133207  0.85704330     0.35100
H2226       H  0.83532473  0.33672034  0.85808257     0.40200
H2227       H  0.84187245  0.41436097  0.73399339     0.39800
H2228       H  0.82375624  0.44296080  0.75405344     0.34700
C2229       C  0.93204002  0.33281621  0.69632482    -0.27000
C2230       C  0.92252870  0.36275987  0.68982028    -0.15100
C2231       C  0.91495868  0.37054330  0.65932036     0.35500
C2232       C  0.91884924  0.34854982  0.63571146    -0.26500
C2233       C  0.92885836  0.31829471  0.64193122    -0.15700
C2234       C  0.93455513  0.31045331  0.67299134     0.36600
N2235       N  0.94231402  0.27951039  0.68112423    -0.90000
H2236       H  0.93672685  0.32647670  0.71994687     0.17700
H2237       H  0.91222238  0.35532404  0.61287721     0.17700
N2238       N  0.90208022  0.39990948  0.65154178    -0.89000
H2239       H  0.96366455  0.28006037  0.69238797     0.35100
H2240       H  0.92558624  0.27146785  0.69664726     0.40200
H2241       H  0.89948355  0.41425588  0.67081268     0.39800
H2242       H  0.87978575  0.39591303  0.64303324     0.34700
C2243       C  0.84683104  0.60292543  0.82779885    -0.27000
C2244       C  0.82161161  0.62334225  0.82678149    -0.15100
C2245       C  0.82074009  0.64432818  0.80188984     0.35500
C2246       C  0.84430233  0.64404994  0.77921207    -0.26500
C2247       C  0.86924616  0.62338656  0.78037608    -0.15700
C2248       C  0.87012923  0.60260633  0.80529297     0.36600
N2249       N  0.89476406  0.58076708  0.80786034    -0.90000
H2250       H  0.84848130  0.58665321  0.84650753     0.17700
H2251       H  0.84241992  0.66022416  0.76064734     0.17700
N2252       N  0.79643979  0.66623468  0.79899767    -0.89000
H2253       H  0.90580260  0.58457722  0.82897856     0.35100
H2254       H  0.88506934  0.55858961  0.80803439     0.40200
H2255       H  0.78555033  0.66240910  0.77780688     0.39800
H2256       H  0.80630068  0.68834165  0.79886852     0.34700
C2257       C  0.69738741  0.65112680  0.86557226    -0.27000
C2258       C  0.72166936  0.65312731  0.88681006    -0.15100
C2259       C  0.72029331  0.67510032  0.91105487     0.35500
C2260       C  0.69607595  0.69674123  0.91166485    -0.26500
C2261       C  0.67346758  0.69654112  0.88857809    -0.15700
C2262       C  0.67331418  0.67251757  0.86627901     0.36600
N2263       N  0.64952463  0.66999932  0.84347316    -0.90000
H2264       H  0.69805978  0.63385031  0.84730451     0.17700
H2265       H  0.69616107  0.71519743  0.92874714     0.17700
N2266       N  0.74471756  0.67694108  0.93339567    -0.89000
H2267       H  0.62815932  0.66877046  0.85486063     0.35100
H2268       H  0.64984288  0.68980733  0.82999814     0.40200
H2269       H  0.74361033  0.65690737  0.94653397     0.39800
H2270       H  0.74097474  0.69534054  0.94874558     0.34700
C2271       C  0.44632912  0.80991538  0.82553552    -0.27000
C2272       C  0.41798504  0.80440569  0.84079901    -0.15100
C2273       C  0.39303971  0.82435368  0.83495152     0.35500
C2274       C  0.39619875  0.84760424  0.81254777    -0.26500
C2275       C  0.42397727  0.85216838  0.79587159    -0.15700
C2276       C  0.44954805  0.83327185  0.80322694     0.36600
N2277       N  0.47851084  0.83586010  0.78722623    -0.90000
H2278       H  0.46579616  0.79497262  0.82989946     0.17700
H2279       H  0.37640574  0.86184900  0.80742763     0.17700
N2280       N  0.36440403  0.82074114  0.85162091    -0.89000
H2281       H  0.48795180  0.85766424  0.79176376     0.35100
H2282       H  0.47452587  0.83352895  0.76356222     0.40200
H2283       H  0.36897422  0.82515628  0.87491262     0.39800
H2284       H  0.34835255  0.83722656  0.84478496     0.34700
C2285       C  0.33874001  0.70662740  0.86307335    -0.27000
C2286       C  0.36739472  0.70137989  0.87736649    -0.15100
C2287       C  0.37146192  0.67211676  0.89149313     0.35500
C2288       C  0.34917560  0.64833617  0.88742791    -0.26500
C2289       C  0.32116444  0.65323857  0.87202468    -0.15700
C2290       C  0.31539851  0.68356455  0.86121671     0.36600
N2291       N  0.28545494  0.69147822  0.84944149    -0.90000
H2292       H  0.33362381  0.72927932  0.85445067     0.17700
H2293       H  0.35390850  0.62574126  0.89655454     0.17700
N2294       N  0.39834280  0.66635111  0.90994394    -0.89000
H2295       H  0.28495455  0.71449584  0.84252360     0.35100
H2296       H  0.26948212  0.68940758  0.86751912     0.40200
H2297       H  0.39700938  0.68049598  0.92956622     0.39800
H2298       H  0.39825072  0.64365719  0.91784680     0.34700
C2299       C  0.87301805  0.64151615  0.16574375    -0.27000
C2300       C  0.86859130  0.62141759  0.19072331    -0.15100
C2301       C  0.83809985  0.61114062  0.19683351     0.35500
C2302       C  0.81536560  0.61422755  0.17416611    -0.26500
C2303       C  0.82235187  0.62793265  0.14564929    -0.15700
C2304       C  0.85006136  0.64534573  0.14342342     0.36600
N2305       N  0.85457253  0.66733381  0.11923345    -0.90000
H2306       H  0.89457837  0.65418043  0.16337728     0.17700
H2307       H  0.79253681  0.60458493  0.17839600     0.17700
N2308       N  0.82985726  0.59810873  0.22594779    -0.89000
H2309       H  0.87612408  0.67831510  0.12120402     0.35100
H2310       H  0.83775809  0.68439338  0.12202302     0.40200
H2311       H  0.82059717  0.57607557  0.22191386     0.39800
H2312       H  0.81246486  0.61170870  0.23586768     0.34700
C2313       C  0.34349635  0.70417121  0.09421089    -0.27000
C2314       C  0.37399553  0.69450221  0.08842316    -0.15100
C2315       C  0.37798241  0.66526204  0.07385078     0.35500
C2316       C  0.35329405  0.64405711  0.07291978    -0.26500
C2317       C  0.32352995  0.65294310  0.08197955    -0.15700
C2318       C  0.31826082  0.68442463  0.08955084     0.36600
N2319       N  0.28786677  0.69777234  0.09029085    -0.90000
H2320       H  0.33893366  0.72795606  0.10059328     0.17700
H2321       H  0.35751651  0.62071265  0.06482394     0.17700
N2322       N  0.40611406  0.65764072  0.05806269    -0.89000
H2323       H  0.28223086  0.70317080  0.11318240     0.35100
H2324       H  0.27111109  0.68276807  0.08126306     0.40200
H2325       H  0.41373971  0.63665013  0.06649774     0.39800
H2326       H  0.40097285  0.65422336  0.03474062     0.34700
C2327       C  0.44792634  0.80681802  0.14699005    -0.27000
C2328       C  0.41982784  0.79140413  0.14098299    -0.15100
C2329       C  0.39328151  0.80109462  0.15808450     0.35500
C2330       C  0.39641060  0.82253895  0.18276728    -0.26500
C2331       C  0.42491455  0.83686762  0.18968129    -0.15700
C2332       C  0.45027328  0.83022689  0.16968339     0.36600
N2333       N  0.47853233  0.84765789  0.17175856    -0.90000
H2334       H  0.46852623  0.80108800  0.13393326     0.17700
H2335       H  0.37588240  0.82924931  0.19543327     0.17700
N2336       N  0.36286642  0.79048753  0.14953842    -0.89000
H2337       H  0.49666571  0.83233812  0.17562864     0.35100
H2338       H  0.48248361  0.85819724  0.15052645     0.40200
H2339       H  0.35841029  0.79865465  0.12742570     0.39800
H2340       H  0.34593807  0.79990342  0.16410416     0.34700
C2341       C  0.10971013  0.34202089  0.67742526    -0.27000
C2342       C  0.13306140  0.36467454  0.67880110    -0.15100
C2343       C  0.15521467  0.36609965  0.65475166     0.35500
C2344       C  0.15547969  0.34321722  0.63164758    -0.26500
C2345       C  0.13394080  0.31880427  0.63188124    -0.15700
C2346       C  0.11005214  0.31885133  0.65425861     0.36600
N2347       N  0.08744870  0.29434616  0.65455233    -0.90000
H2348       H  0.09259092  0.34103416  0.69575976     0.17700
H2349       H  0.17367472  0.34353206  0.61433676     0.17700
N2350       N  0.17809905  0.39017617  0.65366194    -0.89000
H2351       H  0.07131646  0.29792984  0.67227758     0.35100
H2352       H  0.09897736  0.27391411  0.65965424     0.40200
H2353       H  0.16665295  0.41135558  0.65384715     0.39800
H2354       H  0.19185234  0.38912667  0.67334221     0.34700
C2355       C  0.18485493  0.37151953  0.80355416    -0.27000
C2356       C  0.18853564  0.39124900  0.77810744    -0.15100
C2357       C  0.21845272  0.40374422  0.77278159     0.35500
C2358       C  0.24100125  0.40228061  0.79605709    -0.26500
C2359       C  0.23509347  0.38731531  0.82419025    -0.15700
C2360       C  0.20805068  0.36870989  0.82604647     0.36600
N2361       N  0.20417572  0.34696461  0.85057975    -0.90000
H2362       H  0.16401895  0.35777356  0.80594227     0.17700
H2363       H  0.26335282  0.41291434  0.79196436     0.17700
N2364       N  0.22586680  0.41808698  0.74392435    -0.89000
H2365       H  0.18298840  0.33527574  0.84870600     0.35100
H2366       H  0.22149569  0.33037546  0.84807254     0.40200
H2367       H  0.22472901  0.40101589  0.72673538     0.39800
H2368       H  0.24863839  0.42645355  0.74389765     0.34700
C2369       C  0.68088438  0.18662509  0.79634271    -0.27000
C2370       C  0.65932841  0.16202601  0.79705504    -0.15100
C2371       C  0.63762067  0.16149388  0.82196809     0.35500
C2372       C  0.63786996  0.18495591  0.84400329    -0.26500
C2373       C  0.65855534  0.21010250  0.84280575    -0.15700
C2374       C  0.68076552  0.21044153  0.81866421     0.36600
N2375       N  0.70348827  0.23440268  0.81619376    -0.90000
H2376       H  0.69789167  0.18839664  0.77821146     0.17700
H2377       H  0.62093135  0.18367244  0.86252107     0.17700
N2378       N  0.61436477  0.13795769  0.82591757    -0.89000
H2379       H  0.70090119  0.24496279  0.79481799     0.35100
H2380       H  0.72543170  0.22438199  0.81678326     0.40200
H2381       H  0.62440290  0.11673994  0.83042342     0.39800
H2382       H  0.59988458  0.13637259  0.80682783     0.34700
C2383       C  0.74077377  0.10924031  0.30760628    -0.27000
C2384       C  0.73271307  0.10193648  0.33808567    -0.15100
C2385       C  0.70302038  0.08794277  0.34284344     0.35500
C2386       C  0.68016705  0.09055621  0.32015076    -0.26500
C2387       C  0.68743767  0.10286095  0.29128482    -0.15700
C2388       C  0.71893285  0.10909646  0.28421048     0.36600
N2389       N  0.73007128  0.11272510  0.25321046    -0.90000
H2390       H  0.76454955  0.11402245  0.30124351     0.17700
H2391       H  0.65688933  0.08230996  0.32490427     0.17700
N2392       N  0.69629831  0.06813212  0.36830309    -0.89000
H2393       H  0.72369712  0.13404437  0.24453527     0.35100
H2394       H  0.72098171  0.09497272  0.23936578     0.40200
H2395       H  0.71325805  0.05111532  0.36933279     0.39800
H2396       H  0.69583229  0.08038367  0.38896911     0.34700
C2397       C  0.86009152  0.14702618  0.39229902    -0.27000
C2398       C  0.83105078  0.15441936  0.38015450    -0.15100
C2399       C  0.82645765  0.18532752  0.37041835     0.35500
C2400       C  0.85139623  0.20619942  0.36983045    -0.26500
C2401       C  0.88130186  0.19794486  0.37930538    -0.15700
C2402       C  0.88440640  0.16886814  0.39345452     0.36600
N2403       N  0.91179333  0.16160917  0.41006608    -0.90000
H2404       H  0.86400478  0.12428571  0.40154276     0.17700
H2405       H  0.84671468  0.22958762  0.36289432     0.17700
N2406       N  0.79646318  0.19746173  0.36371804    -0.89000
H2407       H  0.90548858  0.15642204  0.43274075     0.35100
H2408       H  0.92083482  0.14178041  0.39985415     0.40200
H2409       H  0.78017451  0.18930185  0.37963393     0.39800
H2410       H  0.79018262  0.19154794  0.34123435     0.34700
C2411       C  0.17903533  0.84404658  0.60082771    -0.27000
C2412       C  0.18426610  0.81727707  0.58305424    -0.15100
C2413       C  0.21187801  0.81493310  0.56556911     0.35500
C2414       C  0.23453040  0.83821006  0.56783004    -0.26500
C2415       C  0.23037361  0.86366366  0.58764683    -0.15700
C2416       C  0.20191254  0.86709980  0.60343243     0.36600
N2417       N  0.19640144  0.89303001  0.62342320    -0.90000
H2418       H  0.15799971  0.84601027  0.61444116     0.17700
H2419       H  0.25635204  0.83538056  0.55568049     0.17700
N2420       N  0.21820433  0.78829218  0.54678026    -0.89000
H2421       H  0.19968245  0.91305123  0.61060774     0.35100
H2422       H  0.21295945  0.89302895  0.64090861     0.40200
H2423       H  0.20044431  0.78591648  0.53062161     0.39800
H2424       H  0.21794520  0.76882472  0.56078228     0.34700
C2425       C  0.71441284  0.29637912  0.09346906    -0.27000
C2426       C  0.68390777  0.30385137  0.10159927    -0.15100
C2427       C  0.67737036  0.33348153  0.11298182     0.35500
C2428       C  0.70109015  0.35583713  0.11423022    -0.26500
C2429       C  0.73172014  0.34922351  0.10442532    -0.15700
C2430       C  0.73849516  0.31833329  0.09556610     0.36600
N2431       N  0.76981330  0.30922086  0.08886337    -0.90000
H2432       H  0.71967191  0.27277553  0.08687438     0.17700
H2433       H  0.69531767  0.37790426  0.12428018     0.17700
N2434       N  0.64702142  0.34011113  0.12497226    -0.89000
H2435       H  0.77059396  0.28610030  0.08175026     0.35100
H2436       H  0.78228728  0.31066150  0.10940497     0.40200
H2437       H  0.63146674  0.33791405  0.10671427     0.39800
H2438       H  0.64581734  0.36292931  0.13293946     0.34700
C2439       C  0.84775998  0.39628935  0.20206339    -0.27000
C2440       C  0.87905747  0.39458826  0.19317804    -0.15100
C2441       C  0.88601512  0.39458064  0.16118613     0.35500
C2442       C  0.86198981  0.39664026  0.13916738    -0.26500
C2443       C  0.83061099  0.39762433  0.14820982    -0.15700
C2444       C  0.82378258  0.39771429  0.18015820     0.36600
N2445       N  0.79229796  0.39934615  0.19058297    -0.90000
H2446       H  0.84176892  0.39626484  0.22635979     0.17700
H2447       H  0.86781158  0.39589710  0.11483499     0.17700
N2448       N  0.91705852  0.39048299  0.15037552    -0.89000
H2449       H  0.79008445  0.41889536  0.20475616     0.35100
H2450       H  0.78766991  0.37991339  0.20395134     0.40200
H2451       H  0.93065699  0.40859481  0.15894006     0.39800
H2452       H  0.92548561  0.36984734  0.15919803     0.34700
C2453       C  0.67715411  0.68178941  0.11031527    -0.27000
C2454       C  0.68280566  0.70966072  0.09494014    -0.15100
C2455       C  0.70970013  0.71226359  0.07642093     0.35500
C2456       C  0.73074030  0.68764498  0.07438250    -0.26500
C2457       C  0.72585114  0.66025344  0.09080115    -0.15700
C2458       C  0.69851270  0.65736471  0.10874597     0.36600
N2459       N  0.69252299  0.63030077  0.12650857    -0.90000
H2460       H  0.65658539  0.67942914  0.12455246     0.17700
H2461       H  0.75196633  0.69060190  0.06125928     0.17700
N2462       N  0.71673935  0.74014633  0.06036164    -0.89000
H2463       H  0.69267226  0.61122099  0.11154423     0.35100
H2464       H  0.71051990  0.62773607  0.14227153     0.40200
H2465       H  0.71806708  0.75823353  0.07648193     0.39800
H2466       H  0.69849950  0.74462103  0.04535380     0.34700
C2467       C  0.67075193  0.81864618  0.15829119    -0.27000
C2468       C  0.64128953  0.80679031  0.15067485    -0.15100
C2469       C  0.61518751  0.82150358  0.16461089     0.35500
C2470       C  0.61948060  0.84214158  0.18960752    -0.26500
C2471       C  0.64906328  0.85201825  0.19881432    -0.15700
C2472       C  0.67487204  0.84137638  0.18133074     0.36600
N2473       N  0.70516688  0.85471044  0.18451619    -0.90000
H2474       H  0.69092087  0.81071899  0.14561838     0.17700
H2475       H  0.59929537  0.85112129  0.20148710     0.17700
N2476       N  0.58452176  0.81714540  0.15248538    -0.89000
H2477       H  0.71485406  0.84826287  0.20537568     0.35100
H2478       H  0.70341380  0.87874232  0.18370701     0.40200
H2479       H  0.58444981  0.82605249  0.13018757     0.39800
H2480       H  0.56822580  0.82977938  0.16521283     0.34700
C2481       C  0.16839451  0.69210142  0.68645940    -0.27000
C2482       C  0.14524206  0.66909827  0.68381245    -0.15100
C2483       C  0.12541295  0.66998255  0.65814457     0.35500
C2484       C  0.12868930  0.69327938  0.63654260    -0.26500
C2485       C  0.15098461  0.71712687  0.63944916    -0.15700
C2486       C  0.17153566  0.71583832  0.66489938     0.36600
N2487       N  0.19586813  0.73769415  0.67016625    -0.90000
H2488       H  0.18421507  0.69262571  0.70555029     0.17700
H2489       H  0.11281151  0.69303522  0.61724763     0.17700
N2490       N  0.10139224  0.64730965  0.65397936    -0.89000
H2491       H  0.18622456  0.75935246  0.67448379     0.35100
H2492       H  0.21082290  0.73763080  0.65114671     0.40200
H2493       H  0.10490951  0.63629117  0.63268133     0.39800
H2494       H  0.08015165  0.65870765  0.65323366     0.34700
C2495       C  0.19512401  0.58463563  0.77834582    -0.27000
C2496       C  0.17861813  0.61219908  0.78012014    -0.15100
C2497       C  0.18589704  0.63397365  0.80330025     0.35500
C2498       C  0.21046869  0.62844614  0.82315309    -0.26500
C2499       C  0.22822004  0.60119110  0.82124350    -0.15700
C2500       C  0.21970833  0.57875386  0.79849662     0.36600
N2501       N  0.23551578  0.55010830  0.79499907    -0.90000
H2502       H  0.18957158  0.56786385  0.76042602     0.17700
H2503       H  0.21571158  0.64577890  0.84062512     0.17700
N2504       N  0.16829390  0.66161492  0.80766527    -0.89000
H2505       H  0.24445804  0.54872176  0.77257538     0.35100
H2506       H  0.21941669  0.53219530  0.79776466     0.40200
H2507       H  0.14501609  0.65543362  0.81062141     0.39800
H2508       H  0.17031381  0.67519926  0.78804264     0.34700
C2509       C  0.35420707  0.12779093  0.70514935    -0.27000
C2510       C  0.38300326  0.11478576  0.69691062    -0.15100
C2511       C  0.38434900  0.09924885  0.66760122     0.35500
C2512       C  0.35985168  0.10183473  0.64640412    -0.26500
C2513       C  0.33215305  0.11694987  0.65411077    -0.15700
C2514       C  0.32882534  0.12814393  0.68484283     0.36600
N2515       N  0.29922604  0.13854184  0.69608730    -0.90000
H2516       H  0.35028763  0.13608586  0.72835970     0.17700
H2517       H  0.36263318  0.09152997  0.62371403     0.17700
N2518       N  0.40917487  0.07909615  0.65895047    -0.89000
H2519       H  0.30054650  0.14596262  0.71906765     0.35100
H2520       H  0.28406701  0.11962037  0.69558575     0.40200
H2521       H  0.42962239  0.09153314  0.65622664     0.39800
H2522       H  0.41197384  0.06242925  0.67586255     0.34700
C2523       C  0.40255735  0.18500176  0.83789809    -0.27000
C2524       C  0.42958378  0.20152889  0.84562105    -0.15100
C2525       C  0.45769463  0.19255999  0.83132826     0.35500
C2526       C  0.45785098  0.16883687  0.80840886    -0.26500
C2527       C  0.43031738  0.15358966  0.79946781    -0.15700
C2528       C  0.40268631  0.16099208  0.81562675     0.36600
N2529       N  0.37462099  0.14411753  0.80919289    -0.90000
H2530       H  0.38098629  0.19106062  0.84925011     0.17700
H2531       H  0.47932004  0.16338893  0.79657012     0.17700
N2532       N  0.48587968  0.20843999  0.83887061    -0.89000
H2533       H  0.35635992  0.15229670  0.82287049     0.35100
H2534       H  0.37821163  0.12120304  0.81546586     0.40200
H2535       H  0.49488042  0.21802165  0.81868121     0.39800
H2536       H  0.50167184  0.19216923  0.84671209     0.34700
C2537       C  0.75554537  0.11545491  0.67998119    -0.27000
C2538       C  0.74652231  0.11598770  0.64898277    -0.15100
C2539       C  0.71477023  0.11273671  0.64208608     0.35500
C2540       C  0.69251707  0.11068634  0.66611876    -0.26500
C2541       C  0.70149686  0.11186064  0.69721857    -0.15700
C2542       C  0.73361164  0.11299312  0.70402195     0.36600
N2543       N  0.74386720  0.11199534  0.73548643    -0.90000
H2544       H  0.77995747  0.11710610  0.68549046     0.17700
H2545       H  0.66811306  0.10976939  0.66043390     0.17700
N2546       N  0.70489579  0.11309318  0.61072173    -0.89000
H2547       H  0.76803057  0.11321969  0.73662938     0.35100
H2548       H  0.73734262  0.09054284  0.74429058     0.40200
H2549       H  0.68963131  0.13149508  0.60829595     0.39800
H2550       H  0.69281398  0.09254533  0.60635909     0.34700
C2551       C  0.87330591  0.16529433  0.60925257    -0.27000
C2552       C  0.84149975  0.17009266  0.60327017    -0.15100
C2553       C  0.83193699  0.20072850  0.59756756     0.35500
C2554       C  0.85391489  0.22469512  0.59537929    -0.26500
C2555       C  0.88554000  0.21917076  0.59946587    -0.15700
C2556       C  0.89519609  0.18950050  0.60762895     0.36600
N2557       N  0.92710505  0.18425884  0.61514171    -0.90000
H2558       H  0.88168704  0.14305588  0.61592082     0.17700
H2559       H  0.84618788  0.24786503  0.59050037     0.17700
N2560       N  0.79980091  0.20762452  0.59365560    -0.89000
H2561       H  0.93034667  0.16133407  0.62149643     0.35100
H2562       H  0.93234081  0.19768090  0.63464486     0.40200
H2563       H  0.79705146  0.21747821  0.57196209     0.39800
H2564       H  0.79353844  0.22406609  0.61034012     0.34700
C2565       C  0.14153235  0.71036142  0.29381156    -0.27000
C2566       C  0.13423037  0.70198304  0.32423653    -0.15100
C2567       C  0.11834144  0.67325482  0.32827442     0.35500
C2568       C  0.11893450  0.65106790  0.30456132    -0.26500
C2569       C  0.13097651  0.65827877  0.27550736    -0.15700
C2570       C  0.13893458  0.68928816  0.26933745     0.36600
N2571       N  0.14349876  0.69950634  0.23818038    -0.90000
H2572       H  0.14791815  0.73384835  0.28851099     0.17700
H2573       H  0.10972066  0.62822531  0.30896767     0.17700
N2574       N  0.09888665  0.66684493  0.35437041    -0.89000
H2575       H  0.14889448  0.72305049  0.23763883     0.35100
H2576       H  0.12247346  0.69660758  0.22661595     0.40200
H2577       H  0.08302581  0.68473320  0.35735565     0.39800
H2578       H  0.11172838  0.66441801  0.37429575     0.34700
C2579       C  0.18527659  0.82501780  0.38637934    -0.27000
C2580       C  0.19012463  0.79780828  0.36916618    -0.15100
C2581       C  0.21957149  0.79400619  0.35461814     0.35500
C2582       C  0.24161666  0.81817695  0.35542559    -0.26500
C2583       C  0.23664061  0.84548105  0.37248485    -0.15700
C2584       C  0.20848316  0.84782968  0.38935861     0.36600
N2585       N  0.20361982  0.87296597  0.41052790    -0.90000
H2586       H  0.16351129  0.82869199  0.39827023     0.17700
H2587       H  0.26365737  0.81427046  0.34432604     0.17700
N2588       N  0.22811660  0.76504772  0.34059677    -0.89000
H2589       H  0.18325041  0.88406124  0.40434723     0.35100
H2590       H  0.20026684  0.86383255  0.43250447     0.40200
H2591       H  0.22898136  0.74868498  0.35808374     0.39800
H2592       H  0.25029327  0.76613997  0.33085066     0.34700
loop_ 
_geom_bond_atom_site_label_1 
_geom_bond_atom_site_label_2 
_geom_bond_distance 
_geom_bond_site_symmetry_2 
_ccdc_geom_bond_type 
C1            C2   1.536       .  S
C1            C7   1.545       .  S
C1            C5   1.517       .  S
C1         C2566   1.529       .  S
C2            H9   1.082       .  S
C2            C3   1.364       .  D
C3            C4   1.531       .  S
C3          C357   1.467       .  S
C4            C8   1.562       .  S
C4            C6   1.544       .  S
C4           H10   1.108       .  S
C5           H11   1.088       .  S
C5            C6   1.353       .  D
C6          C942   1.459       .  S
C7           H12   1.079       .  S
C7            C8   1.375       .  D
C8         C2580   1.515       .  S
C13          C14   1.535       .  S
C13          C19   1.542       .  S
C13          C17   1.542       .  S
C13        C2552   1.545       .  S
C14          H21   1.087       .  S
C14          C15   1.360       .  D
C15          C16   1.543       .  S
C15         C316   1.469       .  S
C16          C20   1.531       .  S
C16          C18   1.551       .  S
C16          H22   1.111       .  S
C17          H23   1.086       .  S
C17          C18   1.375       .  D
C18        C2538   1.502       .  S
C19          H24   1.081       .  S
C19          C20   1.364       .  D
C20         C863   1.465       .  S
C25          C26   1.530       .  S
C25          C31   1.539       .  S
C25          C29   1.550       .  S
C25        C2510   1.560       .  S
C26          H33   1.087       .  S
C26          C27   1.362       .  D
C27          C28   1.550       .  S
C27         C575   1.480       .  S
C28          C32   1.541       .  S
C28          C30   1.559       .  S
C28          H34   1.111       .  S
C29          H35   1.083       .  S
C29          C30   1.374       .  D
C30        C2527   1.514       .  S
C31          H36   1.083       .  S
C31          C32   1.371       .  D
C32         C330   1.481       .  S
C37          C38   1.538       .  S
C37          C43   1.536       .  S
C37          C41   1.538       .  S
C37        C2482   1.531       .  S
C38          H45   1.087       .  S
C38          C39   1.363       .  D
C39          C40   1.539       .  S
C39         C665   1.467       .  S
C40          C44   1.524       .  S
C40          C42   1.542       .  S
C40          H46   1.111       .  S
C41          H47   1.081       .  S
C41          C42   1.365       .  D
C42        C2496   1.475       .  S
C43          H48   1.086       .  S
C43          C44   1.363       .  D
C44         C344   1.460       .  S
C49          C50   1.538       .  S
C49          C55   1.533       .  S
C49          C53   1.552       .  S
C49        C2468   1.548       .  S
C50          H57   1.083       .  S
C50          C51   1.361       .  D
C51          C52   1.537       .  S
C51         C415   1.464       .  S
C52          C56   1.528       .  S
C52          C54   1.546       .  S
C52          H58   1.111       .  S
C53          H59   1.085       .  S
C53          C54   1.376       .  D
C54        C2454   1.496       .  S
C55          H60   1.085       .  S
C55          C56   1.365       .  D
C56         C494   1.466       .  S
C61          C62   1.535       .  S
C61          C67   1.536       .  S
C61          C65   1.538       .  S
C61        C2429   1.544       .  S
C62          H69   1.087       .  S
C62          C63   1.361       .  D
C63          C64   1.549       .  S
C63         C745   1.475       .  S
C64          C68   1.541       .  S
C64          C66   1.564       .  S
C64          H70   1.110       .  S
C65          H71   1.086       .  S
C65          C66   1.374       .  D
C66        C2443   1.513       .  S
C67          H72   1.082       .  S
C67          C68   1.360       .  D
C68         C399   1.472       .  S
C73          C74   1.532       .  S
C73          C79   1.535       .  S
C73          C77   1.546       .  S
C73        C2485   1.539       .  S
C74          H81   1.088       .  S
C74          C75   1.359       .  D
C75          C76   1.535       .  S
C75         C360   1.463       .  S
C76          C80   1.543       .  S
C76          C78   1.548       .  S
C76          H82   1.111       .  S
C77          H83   1.075       .  S
C77          C78   1.372       .  D
C78        C2412   1.485       .  S
C79          H84   1.087       .  S
C79          C80   1.356       .  D
C80         C848   1.470       .  S
C85          C86   1.546       .  S
C85          C91   1.534       .  S
C85          C89   1.520       .  S
C85        C2384   1.531       .  S
C86          H93   1.077       .  S
C86          C87   1.371       .  D
C87          C88   1.555       .  S
C87        C2398   1.505       .  S
C88          C92   1.528       .  S
C88          C90   1.544       .  S
C88          H94   1.110       .  S
C89          H95   1.087       .  S
C89          C90   1.357       .  D
C90         C929   1.460       .  S
C91          H96   1.083       .  S
C91          C92   1.364       .  D
C92         C317   1.462       .  S
C97          C98   1.532       .  S
C97         C103   1.528       .  S
C97         C101   1.540       .  S
C97        C2370   1.534       .  S
C98         H105   1.086       .  S
C98          C99   1.361       .  D
C99         C100   1.541       .  S
C99         C481   1.474       .  S
C100        C104   1.554       .  S
C100        C102   1.566       .  S
C100        H106   1.110       .  S
C101        H107   1.081       .  S
C101        C102   1.373       .  D
C102       C2541   1.506       .  S
C103        H108   1.087       .  S
C103        C104   1.355       .  D
C104        C331   1.478       .  S
C109        C110   1.537       .  S
C109        C115   1.546       .  S
C109        C113   1.533       .  S
C109       C2356   1.543       .  S
C110        H117   1.086       .  S
C110        C111   1.363       .  D
C111        C112   1.535       .  S
C111        C760   1.466       .  S
C112        C116   1.543       .  S
C112        C114   1.546       .  S
C112        H118   1.111       .  S
C113        H119   1.086       .  S
C113        C114   1.369       .  D
C114       C2342   1.487       .  S
C115        H120   1.085       .  S
C115        C116   1.367       .  D
C116        C345   1.479       .  S
C121        C122   1.530       .  S
C121        C127   1.523       .  S
C121        C125   1.542       .  S
C121       C2314   1.526       .  S
C122        H129   1.085       .  S
C122        C123   1.362       .  D
C123        C124   1.539       .  S
C123        C414   1.465       .  S
C124        C128   1.541       .  S
C124        C126   1.565       .  S
C124        H130   1.108       .  S
C125        H131   1.082       .  S
C125        C126   1.377       .  D
C126       C2328   1.519       .  S
C127        H132   1.087       .  S
C127        C128   1.353       .  D
C128        C560   1.463       .  S
C133        C134   1.538       .  S
C133        C139   1.533       .  S
C133        C137   1.527       .  S
C133       C2303   1.528       .  S
C134        H141   1.085       .  S
C134        C135   1.363       .  D
C135        C136   1.540       .  S
C135        C678   1.473       .  S
C136        C140   1.553       .  S
C136        C138   1.563       .  S
C136        H142   1.109       .  S
C137        H143   1.087       .  S
C137        C138   1.366       .  D
C138       C2457   1.496       .  S
C139        H144   1.087       .  S
C139        C140   1.358       .  D
C140        C402   1.474       .  S
C145        C146   1.538       .  S
C145        C151   1.538       .  S
C145        C149   1.555       .  S
C145       C2286   1.558       .  S
C146        H153   1.086       .  S
C146        C147   1.365       .  D
C147        C148   1.539       .  S
C147        C561   1.473       .  S
C148        C152   1.527       .  S
C148        C150   1.551       .  S
C148        H154   1.111       .  S
C149        H155   1.084       .  S
C149        C150   1.380       .  D
C150       C2272   1.509       .  S
C151        H156   1.086       .  S
C151        C152   1.364       .  D
C152        C429   1.466       .  S
C157        C158   1.541       .  S
C157        C163   1.537       .  S
C157        C161   1.549       .  S
C157       C2244   1.546       .  S
C158        H165   1.087       .  S
C158        C159   1.364       .  D
C159        C160   1.534       .  S
C159        C443   1.467       .  S
C160        C164   1.522       .  S
C160        C162   1.536       .  S
C160        H166   1.111       .  S
C161        H167   1.077       .  S
C161        C162   1.372       .  D
C162       C2258   1.481       .  S
C163        H168   1.088       .  S
C163        C164   1.362       .  D
C164        C679   1.455       .  S
C169        C170   1.546       .  S
C169        C175   1.542       .  S
C169        C173   1.527       .  S
C169       C2216   1.534       .  S
C170        H177   1.085       .  S
C170        C171   1.368       .  D
C171        C172   1.538       .  S
C171        C303   1.473       .  S
C172        C176   1.528       .  S
C172        C174   1.541       .  S
C172        H178   1.111       .  S
C173        H179   1.087       .  S
C173        C174   1.361       .  D
C174       C2230   1.470       .  S
C175        H180   1.086       .  S
C175        C176   1.363       .  D
C176        C757   1.461       .  S
C181        C182   1.529       .  S
C181        C187   1.536       .  S
C181        C185   1.533       .  S
C181       C2188   1.520       .  S
C182        H189   1.087       .  S
C182        C183   1.359       .  D
C183        C184   1.546       .  S
C183        C373   1.471       .  S
C184        C188   1.526       .  S
C184        C186   1.547       .  S
C184        H190   1.110       .  S
C185        H191   1.082       .  S
C185        C186   1.365       .  D
C186       C2205   1.476       .  S
C187        H192   1.084       .  S
C187        C188   1.361       .  D
C188        C480   1.463       .  S
C193        C194   1.535       .  S
C193        C199   1.547       .  S
C193        C197   1.537       .  S
C193       C2160   1.555       .  S
C194        H201   1.086       .  S
C194        C195   1.365       .  D
C195        C196   1.544       .  S
C195        C387   1.475       .  S
C196        C200   1.531       .  S
C196        C198   1.557       .  S
C196        H202   1.110       .  S
C197        H203   1.083       .  S
C197        C198   1.373       .  D
C198       C2174   1.510       .  S
C199        H204   1.079       .  S
C199        C200   1.362       .  D
C200        C928   1.470       .  S
C205        C206   1.533       .  S
C205        C211   1.545       .  S
C205        C209   1.545       .  S
C205       C2132   1.552       .  S
C206        H213   1.087       .  S
C206        C207   1.366       .  D
C207        C208   1.534       .  S
C207        C849   1.468       .  S
C208        C212   1.553       .  S
C208        C210   1.537       .  S
C208        H214   1.111       .  S
C209        H215   1.080       .  S
C209        C210   1.363       .  D
C210        C290   1.473       .  S
C211        H216   1.086       .  S
C211        C212   1.375       .  D
C212       C2146   1.502       .  S
C217        C218   1.532       .  S
C217        C223   1.529       .  S
C217        C221   1.539       .  S
C217       C2191   1.522       .  S
C218        H225   1.088       .  S
C218        C219   1.359       .  D
C219        C220   1.532       .  S
C219        C495   1.459       .  S
C220        C224   1.540       .  S
C220        C222   1.548       .  S
C220        H226   1.111       .  S
C221        H227   1.079       .  S
C221        C222   1.370       .  D
C222       C2261   1.480       .  S
C223        H228   1.088       .  S
C223        C224   1.352       .  D
C224        C428   1.457       .  S
C229        C230   1.537       .  S
C229        C235   1.536       .  S
C229        C233   1.534       .  S
C229       C2219   1.533       .  S
C230        H237   1.085       .  S
C230        C231   1.362       .  D
C231        C232   1.530       .  S
C231        C744   1.462       .  S
C232        C236   1.543       .  S
C232        C234   1.544       .  S
C232        H238   1.111       .  S
C233        H239   1.086       .  S
C233        C234   1.369       .  D
C234       C2118   1.483       .  S
C235        H240   1.086       .  S
C235        C236   1.361       .  D
C236        C442   1.466       .  S
C241        C242   1.532       .  S
C241        C247   1.532       .  S
C241        C245   1.545       .  S
C241       C2247   1.537       .  S
C242        H249   1.088       .  S
C242        C243   1.362       .  D
C243        C244   1.538       .  S
C243        C664   1.466       .  S
C244        C248   1.552       .  S
C244        C246   1.560       .  S
C244        H250   1.111       .  S
C245        H251   1.082       .  S
C245        C246   1.373       .  D
C246       C2149   1.501       .  S
C247        H252   1.087       .  S
C247        C248   1.360       .  D
C248        C302   1.483       .  S
C253        C254   1.528       .  S
C253        C259   1.532       .  S
C253        C257   1.543       .  S
C253       C2104   1.541       .  S
C254        H261   1.085       .  S
C254        C255   1.361       .  D
C255        C256   1.543       .  S
C255        C372   1.472       .  S
C256        C260   1.549       .  S
C256        C258   1.569       .  S
C256        H262   1.108       .  S
C257        H263   1.082       .  S
C257        C258   1.375       .  D
C258       C2275   1.516       .  S
C259        H264   1.087       .  S
C259        C260   1.361       .  D
C260        C574   1.479       .  S
C265        C266   1.540       .  S
C265        C271   1.526       .  S
C265        C269   1.543       .  S
C265       C2202   1.526       .  S
C266        H273   1.084       .  S
C266        C267   1.358       .  D
C267        C268   1.531       .  S
C267        C386   1.466       .  S
C268        C272   1.543       .  S
C268        C270   1.552       .  S
C268        H274   1.111       .  S
C269        H275   1.086       .  S
C269        C270   1.370       .  D
C270       C2135   1.493       .  S
C271        H276   1.087       .  S
C271        C272   1.358       .  D
C272        C862   1.461       .  S
O277       Cu285   2.003       .  S
O277        C287   1.276       .  A
O278       Cu285   1.978       .  S
O278        C288   1.274       .  A
O279       Cu285   2.035       .  S
O279        C289   1.281       .  A
O280       Cu285   2.034       .  S
O280        C290   1.281       .  A
O281       Cu286   1.978       .  S
O281        C290   1.274       .  A
O282       Cu286   1.973       .  S
O282        C289   1.273       .  A
O283       Cu286   1.977       .  S
O283        C288   1.276       .  A
O284       Cu286   1.984       .  S
O284        C287   1.274       .  A
Cu285      Cu286   2.372       .  S
C287       C1244   1.457       .  S
C288       C2076   1.464       .  S
C289       C2090   1.489       .  S
O291       Cu299   2.018       .  S
O291        C301   1.279       .  A
O292       Cu299   2.040       .  S
O292        C302   1.280       .  A
O293       Cu299   2.027       .  S
O293        C303   1.280       .  A
O294       Cu299   1.984       .  S
O294        C304   1.276       .  A
O295       Cu300   1.971       .  S
O295        C304   1.272       .  A
O296       Cu300   1.994       .  S
O296        C303   1.275       .  A
O297       Cu300   1.999       .  S
O297        C302   1.277       .  A
O298       Cu300   2.004       .  S
O298        C301   1.278       .  A
Cu299      Cu300   2.370       .  S
C301       C2065   1.493       .  S
C304       C2079   1.468       .  S
O305       Cu313   1.986       .  S
O305        C315   1.277       .  A
O306       Cu313   2.002       .  S
O306        C316   1.278       .  A
O307       Cu313   1.991       .  S
O307        C317   1.274       .  A
O308       Cu313   1.983       .  S
O308        C318   1.276       .  A
O309       Cu314   1.985       .  S
O309        C318   1.275       .  A
O310       Cu314   2.008       .  S
O310        C317   1.278       .  A
O311       Cu314   2.007       .  S
O311        C316   1.276       .  A
O312       Cu314   1.995       .  S
O312        C315   1.276       .  A
Cu313      Cu314   2.373       .  S
C315       C2048   1.475       .  S
C318       C2034   1.475       .  S
O319       Cu327   1.984       .  S
O319        C329   1.275       .  A
O320       Cu327   2.009       .  S
O320        C330   1.277       .  A
O321       Cu327   2.014       .  S
O321        C331   1.281       .  A
O322       Cu327   1.996       .  S
O322        C332   1.277       .  A
O323       Cu328   1.987       .  S
O323        C332   1.274       .  A
O324       Cu328   2.011       .  S
O324        C331   1.275       .  A
O325       Cu328   2.030       .  S
O325        C330   1.281       .  A
O326       Cu328   1.988       .  S
O326        C329   1.277       .  A
Cu327      Cu328   2.370       .  S
C329       C2037   1.474       .  S
C332       C2023   1.472       .  S
O333       Cu341   1.981       .  S
O333        C343   1.275       .  A
O334       Cu341   1.982       .  S
O334        C344   1.273       .  A
O335       Cu341   2.008       .  S
O335        C345   1.278       .  A
O336       Cu341   2.000       .  S
O336        C346   1.277       .  A
O337       Cu342   2.027       .  S
O337        C346   1.280       .  A
O338       Cu342   2.028       .  S
O338        C345   1.279       .  A
O339       Cu342   2.013       .  S
O339        C344   1.278       .  A
O340       Cu342   1.996       .  S
O340        C343   1.276       .  A
Cu341      Cu342   2.373       .  S
C343       C2006   1.466       .  S
C346       C1995   1.487       .  S
O347       Cu355   2.002       .  S
O347        C357   1.275       .  A
O348       Cu355   2.001       .  S
O348        C358   1.278       .  A
O349       Cu355   1.990       .  S
O349        C359   1.277       .  A
O350       Cu355   2.000       .  S
O350        C360   1.277       .  A
O351       Cu356   2.008       .  S
O351        C360   1.276       .  A
O352       Cu356   2.001       .  S
O352        C359   1.276       .  A
O353       Cu356   2.023       .  S
O353        C358   1.280       .  A
O354       Cu356   2.013       .  S
O354        C357   1.278       .  A
Cu355      Cu356   2.375       .  S
C358       C1992   1.485       .  S
C359       C1978   1.470       .  S
O361       Cu369   2.017       .  S
O361        C371   1.278       .  A
O362       Cu369   2.034       .  S
O362        C372   1.281       .  A
O363       Cu369   2.012       .  S
O363        C373   1.276       .  A
O364       Cu369   2.010       .  S
O364        C374   1.278       .  A
O365       Cu370   2.004       .  S
O365        C374   1.277       .  A
O366       Cu370   2.004       .  S
O366        C373   1.278       .  A
O367       Cu370   1.998       .  S
O367        C372   1.275       .  A
O368       Cu370   2.000       .  S
O368        C371   1.278       .  A
Cu369      Cu370   2.372       .  S
C371       C1950   1.491       .  S
C374       C1964   1.477       .  S
O375       Cu383   1.989       .  S
O375        C385   1.275       .  A
O376       Cu383   2.013       .  S
O376        C386   1.277       .  A
O377       Cu383   2.028       .  S
O377        C387   1.279       .  A
O378       Cu383   2.028       .  S
O378        C388   1.281       .  A
O379       Cu384   1.989       .  S
O379        C388   1.275       .  A
O380       Cu384   1.995       .  S
O380        C387   1.276       .  A
O381       Cu384   2.002       .  S
O381        C386   1.276       .  A
O382       Cu384   2.002       .  S
O382        C385   1.278       .  A
Cu383      Cu384   2.369       .  S
C385       C1936   1.477       .  S
C388       C1953   1.492       .  S
O389       Cu397   1.995       .  S
O389        C399   1.274       .  A
O390       Cu397   1.974       .  S
O390        C400   1.275       .  A
O391       Cu397   1.990       .  S
O391        C401   1.275       .  A
O392       Cu397   1.987       .  S
O392        C402   1.277       .  A
O393       Cu398   2.026       .  S
O393        C402   1.278       .  A
O394       Cu398   2.027       .  S
O394        C401   1.281       .  A
O395       Cu398   1.993       .  S
O395        C400   1.275       .  A
O396       Cu398   2.035       .  S
O396        C399   1.281       .  A
Cu397      Cu398   2.372       .  S
C400       C1908   1.461       .  S
C401       C1922   1.490       .  S
O403       Cu411   1.988       .  S
O403        C413   1.275       .  A
O404       Cu411   2.019       .  S
O404        C414   1.279       .  A
O405       Cu411   2.012       .  S
O405        C415   1.278       .  A
O406       Cu411   2.012       .  S
O406        C416   1.278       .  A
O407       Cu412   1.975       .  S
O407        C416   1.275       .  A
O408       Cu412   1.978       .  S
O408        C415   1.274       .  A
O409       Cu412   1.994       .  S
O409        C414   1.275       .  A
O410       Cu412   1.980       .  S
O410        C413   1.274       .  A
Cu411      Cu412   2.375       .  S
C413       C1911   1.464       .  S
C416       C1897   1.472       .  S
O417       Cu425   1.983       .  S
O417        C427   1.275       .  A
O418       Cu425   1.989       .  S
O418        C428   1.273       .  A
O419       Cu425   2.027       .  S
O419        C429   1.281       .  A
O420       Cu425   2.008       .  S
O420        C430   1.278       .  A
O421       Cu426   1.974       .  S
O421        C430   1.275       .  A
O422       Cu426   1.984       .  S
O422        C429   1.273       .  A
O423       Cu426   1.981       .  S
O423        C428   1.277       .  A
O424       Cu426   1.975       .  S
O424        C427   1.276       .  A
Cu425      Cu426   2.376       .  S
C427       C1880   1.465       .  S
C430       C1866   1.471       .  S
O431       Cu439   2.001       .  S
O431        C441   1.277       .  A
O432       Cu439   2.016       .  S
O432        C442   1.277       .  A
O433       Cu439   2.017       .  S
O433        C443   1.279       .  A
O434       Cu439   1.997       .  S
O434        C444   1.277       .  A
O435       Cu440   1.980       .  S
O435        C444   1.275       .  A
O436       Cu440   1.982       .  S
O436        C443   1.274       .  A
O437       Cu440   1.980       .  S
O437        C442   1.275       .  A
O438       Cu440   1.982       .  S
O438        C441   1.274       .  A
Cu439      Cu440   2.375       .  S
C441       C1869   1.476       .  S
C444       C1852   1.469       .  S
C445        C446   1.521       .  S
C445        C451   1.531       .  S
C445        C449   1.536       .  S
C445       C1838   1.520       .  S
C446        H453   1.087       .  S
C446        C447   1.360       .  D
C447        C448   1.545       .  S
C447       C1206   1.458       .  S
C448        C452   1.527       .  S
C448        C450   1.545       .  S
C448        H454   1.111       .  S
C449        H455   1.080       .  S
C449        C450   1.363       .  D
C450       C2387   1.483       .  S
C451        H456   1.087       .  S
C451        C452   1.362       .  D
C452        C535   1.452       .  S
C457        C458   1.538       .  S
C457        C463   1.535       .  S
C457        C461   1.548       .  S
C457       C2177   1.550       .  S
C458        H465   1.085       .  S
C458        C459   1.366       .  D
C459        C460   1.533       .  S
C459       C1233   1.468       .  S
C460        C464   1.535       .  S
C460        C462   1.553       .  S
C460        H466   1.110       .  S
C461        H467   1.081       .  S
C461        C462   1.375       .  D
C462       C2471   1.505       .  S
C463        H468   1.086       .  S
C463        C464   1.364       .  D
C464        C534   1.472       .  S
O469       Cu477   2.004       .  S
O469        C479   1.278       .  A
O470       Cu477   2.000   1_565  S
O470        C480   1.277       .  A
O471       Cu477   2.006       .  S
O471        C481   1.276       .  A
O472       Cu477   1.995   1_565  S
O472        C482   1.276       .  A
O473       Cu478   2.026   1_565  S
O473        C482   1.280       .  A
O474       Cu478   2.029       .  S
O474        C481   1.280       .  A
O475       Cu478   2.003   1_565  S
O475        C480   1.275       .  A
O476       Cu478   2.003       .  S
O476        C479   1.277       .  A
Cu477      Cu478   2.372       .  S
C479       C1813   1.481       .  S
C482       C1824   1.483       .  S
O483       Cu491   1.998       .  S
O483        C493   1.278       .  A
O484       Cu491   1.999   1_554  S
O484        C494   1.276       .  A
O485       Cu491   1.983       .  S
O485        C495   1.274       .  A
O486       Cu491   1.969   1_554  S
O486        C496   1.273       .  A
O487       Cu492   2.005   1_554  S
O487        C496   1.278       .  A
O488       Cu492   2.016       .  S
O488        C495   1.278       .  A
O489       Cu492   2.012   1_554  S
O489        C494   1.278       .  A
O490       Cu492   2.020       .  S
O490        C493   1.278       .  A
Cu491      Cu492   2.375       .  S
C493       C1827   1.481       .  S
C496       C1796   1.467       .  S
C497        C498   1.538       .  S
C497        C503   1.530       .  S
C497        C501   1.539       .  S
C497       C2373   1.535       .  S
C498        H505   1.087       .  S
C498        C499   1.361       .  D
C499        C500   1.541       .  S
C499       C1193   1.472       .  S
C500        C504   1.536       .  S
C500        C502   1.548       .  S
C500        H506   1.111       .  S
C501        H507   1.077       .  S
C501        C502   1.369       .  D
C502       C2121   1.482       .  S
C503        H508   1.088       .  S
C503        C504   1.360       .  D
C504        C520   1.462       .  S
O509       Cu517   1.994   1_554  S
O509        C519   1.276       .  A
O510       Cu517   1.996       .  S
O510        C520   1.276       .  A
O511       Cu517   2.007   1_554  S
O511        C521   1.278       .  A
O512       Cu517   2.009       .  S
O512        C522   1.278       .  A
O513       Cu518   2.006       .  S
O513        C522   1.278       .  A
O514       Cu518   2.001   1_554  S
O514        C521   1.275       .  A
O515       Cu518   2.010       .  S
O515        C520   1.277       .  A
O516       Cu518   2.016   1_554  S
O516        C519   1.279       .  A
Cu517      Cu518   2.373       .  S
C519       C1782   1.484       .  S
C521        C539   1.463       .  S
C522       C1810   1.484       .  S
O523       Cu531   2.029   1_545  S
O523        C533   1.281       .  A
O524       Cu531   2.029       .  S
O524        C534   1.280       .  A
O525       Cu531   1.993   1_545  S
O525        C535   1.275       .  A
O526       Cu531   1.980       .  S
O526        C536   1.272       .  A
O527       Cu532   1.991       .  S
O527        C536   1.279       .  A
O528       Cu532   1.988   1_545  S
O528        C535   1.275       .  A
O529       Cu532   1.991       .  S
O529        C534   1.274       .  A
O530       Cu532   1.980   1_545  S
O530        C533   1.275       .  A
Cu531      Cu532   2.373       .  S
C533       C1785   1.481       .  S
C536       C1799   1.469       .  S
C537        C538   1.534       .  S
C537        C543   1.539       .  S
C537        C541   1.536       .  S
C537       C1841   1.534       .  S
C538        H545   1.088       .  S
C538        C539   1.360       .  D
C539        C540   1.533       .  S
C540        C544   1.548       .  S
C540        C542   1.546       .  S
C540        H546   1.111       .  S
C541        H547   1.071       .  S
C541        C542   1.358       .  D
C542       C2426   1.477       .  S
C543        H548   1.087       .  S
C543        C544   1.364       .  D
C544       C1221   1.478       .  S
O549       Cu557   1.994       .  S
O549        C559   1.276       .  A
O550       Cu557   2.012   1_554  S
O550        C560   1.277       .  A
O551       Cu557   2.029       .  S
O551        C561   1.281       .  A
O552       Cu557   2.009   1_554  S
O552        C562   1.277       .  A
O553       Cu558   1.989   1_554  S
O553        C562   1.277       .  A
O554       Cu558   1.994       .  S
O554        C561   1.275       .  A
O555       Cu558   1.988   1_554  S
O555        C560   1.276       .  A
O556       Cu558   1.991       .  S
O556        C559   1.277       .  A
Cu557      Cu558   2.376       .  S
C559       C1768   1.470       .  S
C562       C1754   1.478       .  S
O563       Cu571   2.013       .  S
O563        C573   1.279       .  A
O564       Cu571   2.043   1_565  S
O564        C574   1.282       .  A
O565       Cu571   2.034       .  S
O565        C575   1.280       .  A
O566       Cu571   1.996   1_565  S
O566        C576   1.277       .  A
O567       Cu572   1.990   1_565  S
O567        C576   1.276       .  A
O568       Cu572   2.000       .  S
O568        C575   1.277       .  A
O569       Cu572   1.982   1_565  S
O569        C574   1.274       .  A
O570       Cu572   1.976       .  S
O570        C573   1.274       .  A
Cu571      Cu572   2.372       .  S
C573       C1740   1.475       .  S
C576       C1771   1.473       .  S
C577        C578   1.537       .  S
C577        C583   1.531       .  S
C577        C581   1.555       .  S
C577       C2331   1.550       .  S
C578        H585   1.086       .  S
C578        C579   1.362       .  D
C579        C580   1.548       .  S
C579       C1236   1.478       .  S
C580        C584   1.535       .  S
C580        C582   1.551       .  S
C580        H586   1.111       .  S
C581        H587   1.084       .  S
C581        C582   1.378       .  D
C582       C1726   1.505       .  S
C583        H588   1.087       .  S
C583        C584   1.363       .  D
C584        C599   1.471       .  S
O589       Cu597   2.006       .  S
O589        C599   1.277       .  A
O590       Cu597   2.003   1_545  S
O590        C600   1.279       .  A
O591       Cu597   1.979       .  S
O591        C601   1.275       .  A
O592       Cu597   1.991   1_545  S
O592        C602   1.274       .  A
O593       Cu598   2.017   1_545  S
O593        C602   1.279       .  A
O594       Cu598   2.018       .  S
O594        C601   1.279       .  A
O595       Cu598   2.024   1_545  S
O595        C600   1.279       .  A
O596       Cu598   2.019       .  S
O596        C599   1.278       .  A
Cu597      Cu598   2.372       .  S
C600       C1712   1.493       .  S
C601       C1757   1.477       .  S
C602       C1159   1.464       .  S
O603       Cu611   2.023   1_554  S
O603        C613   1.280       .  A
O604       Cu611   2.024       .  S
O604        C614   1.279       .  A
O605       Cu611   2.022   1_554  S
O605        C615   1.279       .  A
O606       Cu611   1.999       .  S
O606        C616   1.276       .  A
O607       Cu612   1.990       .  S
O607        C616   1.277       .  A
O608       Cu612   1.999   1_554  S
O608        C615   1.275       .  A
O609       Cu612   2.010       .  S
O609        C614   1.278       .  A
O610       Cu612   1.998   1_554  S
O610        C613   1.277       .  A
Cu611      Cu612   2.370       .  S
C613       C1715   1.492       .  S
C614        C624   1.479       .  S
C615       C1176   1.471       .  S
C616       C1743   1.473       .  S
C617        C618   1.541       .  S
C617        C623   1.535       .  S
C617        C621   1.545       .  S
C617       C1698   1.553       .  S
C618        H625   1.082       .  S
C618        C619   1.364       .  D
C619        C620   1.533       .  S
C619       C1192   1.469       .  S
C620        C624   1.548       .  S
C620        C622   1.557       .  S
C620        H626   1.111       .  S
C621        H627   1.086       .  S
C621        C622   1.376       .  D
C622       C2524   1.511       .  S
C623        H628   1.086       .  S
C623        C624   1.364       .  D
C629        C630   1.532       .  S
C629        C635   1.514       .  S
C629        C633   1.528       .  S
C629       C1687   1.505       .  S
C630        H637   1.087       .  S
C630        C631   1.358       .  D
C631        C632   1.527       .  S
C631        C720   1.449       .  S
C632        C636   1.545       .  S
C632        C634   1.550       .  S
C632        H638   1.110       .  S
C633        H639   1.079       .  S
C633        C634   1.368       .  D
C634       C2569   1.485       .  S
C635        H640   1.088       .  S
C635        C636   1.352       .  D
C636       C1155   1.452       .  S
C641        C642   1.546       .  S
C641        C647   1.538       .  S
C641        C645   1.524       .  S
C641       C2300   1.526       .  S
C642        H649   1.084       .  S
C642        C643   1.369       .  D
C643        C644   1.544       .  S
C643       C1126   1.480       .  S
C644        C648   1.527       .  S
C644        C646   1.550       .  S
C644        H650   1.111       .  S
C645        H651   1.087       .  S
C645        C646   1.362       .  D
C646       C1670   1.482       .  S
C647        H652   1.087       .  S
C647        C648   1.359       .  D
C648        C717   1.456       .  S
O653       Cu661   1.989       .  S
O653        C663   1.274       .  A
O654       Cu661   2.013   1_655  S
O654        C664   1.277       .  A
O655       Cu661   2.007       .  S
O655        C665   1.277       .  A
O656       Cu661   2.017   1_655  S
O656        C666   1.279       .  A
O657       Cu662   1.995   1_655  S
O657        C666   1.277       .  A
O658       Cu662   1.998       .  S
O658        C665   1.276       .  A
O659       Cu662   2.003   1_655  S
O659        C664   1.277       .  A
O660       Cu662   1.998       .  S
O660        C663   1.278       .  A
Cu661      Cu662   2.372       .  S
C663       C1645   1.474       .  S
C666       C1656   1.484       .  S
O667       Cu675   2.027       .  S
O667        C677   1.281       .  A
O668       Cu675   2.027   1_554  S
O668        C678   1.279       .  A
O669       Cu675   1.991       .  S
O669        C679   1.275       .  A
O670       Cu675   1.990   1_554  S
O670        C680   1.275       .  A
O671       Cu676   1.986   1_554  S
O671        C680   1.276       .  A
O672       Cu676   1.990       .  S
O672        C679   1.275       .  A
O673       Cu676   2.004   1_554  S
O673        C678   1.277       .  A
O674       Cu676   1.991       .  S
O674        C677   1.276       .  A
Cu675      Cu676   2.374       .  S
C677       C1659   1.486       .  S
C680       C1628   1.469       .  S
C681        C682   1.531       .  S
C681        C687   1.540       .  S
C681        C685   1.540       .  S
C681       C2499   1.542       .  S
C682        H689   1.088       .  S
C682        C683   1.356       .  D
C683        C684   1.529       .  S
C683        C704   1.458       .  S
C684        C688   1.552       .  S
C684        C686   1.564       .  S
C684        H690   1.109       .  S
C685        H691   1.084       .  S
C685        C686   1.374       .  D
C686       C2289   1.521       .  S
C687        H692   1.075       .  S
C687        C688   1.364       .  D
C688       C1141   1.480       .  S
O693       Cu701   1.991   1_554  S
O693        C703   1.275       .  A
O694       Cu701   1.991       .  S
O694        C704   1.275       .  A
O695       Cu701   2.001   1_554  S
O695        C705   1.277       .  A
O696       Cu701   2.006       .  S
O696        C706   1.278       .  A
O697       Cu702   1.980       .  S
O697        C706   1.273       .  A
O698       Cu702   1.981   1_554  S
O698        C705   1.273       .  A
O699       Cu702   2.004       .  S
O699        C704   1.277       .  A
O700       Cu702   2.010   1_554  S
O700        C703   1.279       .  A
Cu701      Cu702   2.375       .  S
C703       C1617   1.478       .  S
C705        C728   1.452       .  S
C706       C1642   1.473       .  S
O707       Cu715   1.993   1_655  S
O707        C717   1.275       .  A
O708       Cu715   1.996       .  S
O708        C718   1.276       .  A
O709       Cu715   1.984   1_655  S
O709        C719   1.276       .  A
O710       Cu715   1.984       .  S
O710        C720   1.274       .  A
O711       Cu716   1.990       .  S
O711        C720   1.274       .  A
O712       Cu716   1.990   1_655  S
O712        C719   1.276       .  A
O713       Cu716   2.003       .  S
O713        C718   1.278       .  A
O714       Cu716   2.000   1_655  S
O714        C717   1.275       .  A
Cu715      Cu716   2.378       .  S
C718       C1614   1.474       .  S
C719       C1631   1.468       .  S
C721        C722   1.516       .  S
C721        C727   1.526       .  S
C721        C725   1.534       .  S
C721       C1684   1.508       .  S
C722        H729   1.088       .  S
C722        C723   1.353       .  D
C723        C724   1.544       .  S
C723       C1111   1.455       .  S
C724        C728   1.529       .  S
C724        C726   1.551       .  S
C724        H730   1.110       .  S
C725        H731   1.081       .  S
C725        C726   1.366       .  D
C726       C2317   1.484       .  S
C727        H732   1.085       .  S
C727        C728   1.358       .  D
O733       Cu741   1.979   1_554  S
O733        C743   1.276       .  A
O734       Cu741   2.012       .  S
O734        C744   1.277       .  A
O735       Cu741   2.022   1_554  S
O735        C745   1.278       .  A
O736       Cu741   2.016       .  S
O736        C746   1.279       .  A
O737       Cu742   1.992       .  S
O737        C746   1.276       .  A
O738       Cu742   1.998   1_554  S
O738        C745   1.277       .  A
O739       Cu742   1.989       .  S
O739        C744   1.275       .  A
O740       Cu742   1.980   1_554  S
O740        C743   1.274       .  A
Cu741      Cu742   2.372       .  S
C743       C1586   1.468       .  S
C746       C1600   1.481       .  S
O747       Cu755   1.999   1_655  S
O747        C757   1.276       .  A
O748       Cu755   1.995       .  S
O748        C758   1.277       .  A
O749       Cu755   1.994   1_655  S
O749        C759   1.277       .  A
O750       Cu755   2.002       .  S
O750        C760   1.277       .  A
O751       Cu756   2.010       .  S
O751        C760   1.277       .  A
O752       Cu756   2.012   1_655  S
O752        C759   1.278       .  A
O753       Cu756   2.008       .  S
O753        C758   1.277       .  A
O754       Cu756   2.003   1_655  S
O754        C757   1.276       .  A
Cu755      Cu756   2.372       .  S
C758       C1572   1.488       .  S
C759       C1603   1.481       .  S
O761       Cu769   1.977       .  S
O761        C771   1.275   1_455  A
O762       Cu769   1.990       .  S
O762        C772   1.275       .  A
O763       Cu769   1.992       .  S
O763        C773   1.276   1_455  A
O764       Cu769   1.976       .  S
O764        C774   1.276       .  A
O765       Cu770   2.002       .  S
O765        C774   1.276       .  A
O766       Cu770   2.034   1_655  S
O766        C773   1.281       .  A
O767       Cu770   2.025       .  S
O767        C772   1.279       .  A
O768       Cu770   1.989       .  S
O768        C771   1.275   1_455  A
Cu769      Cu770   2.372       .  S
C771       C1589   1.468       .  S
C772       C1079   1.473       .  S
C773        C780   1.477       .  S
C774       C1558   1.480       .  S
C775        C776   1.545       .  S
C775        C781   1.546       .  S
C775        C779   1.535       .  S
C775       C1547   1.556       .  S
C776        H783   1.086       .  S
C776        C777   1.377       .  D
C777        C778   1.559       .  S
C777       C2440   1.513       .  S
C778        C782   1.533       .  S
C778        C780   1.547       .  S
C778        H784   1.110       .  S
C779        H785   1.087       .  S
C779        C780   1.362       .  D
C781        H786   1.080       .  S
C781        C782   1.366       .  D
C782       C1127   1.476       .  S
O787       Cu795   2.014       .  S
O787        C797   1.280       .  A
O788       Cu795   2.024   1_554  S
O788        C798   1.279       .  A
O789       Cu795   2.017       .  S
O789        C799   1.278       .  A
O790       Cu795   1.995   1_554  S
O790        C800   1.276       .  A
O791       Cu796   1.982   1_554  S
O791        C800   1.275       .  A
O792       Cu796   1.990       .  S
O792        C799   1.274       .  A
O793       Cu796   1.997   1_554  S
O793        C798   1.276       .  A
O794       Cu796   1.991       .  S
O794        C797   1.275       .  A
Cu795      Cu796   2.370       .  S
C797       C1575   1.485       .  S
C798       C1096   1.475       .  S
C799        C808   1.465       .  S
C800       C1561   1.477       .  S
C801        C802   1.542       .  S
C801        C807   1.539       .  S
C801        C805   1.534       .  S
C801       C2359   1.542       .  S
C802        H809   1.085       .  S
C802        C803   1.363       .  D
C803        C804   1.542       .  S
C803       C1140   1.476       .  S
C804        C808   1.530       .  S
C804        C806   1.557       .  S
C804        H810   1.110       .  S
C805        H811   1.086       .  S
C805        C806   1.370       .  D
C806       C1701   1.500       .  S
C807        H812   1.086       .  S
C807        C808   1.365       .  D
C813        C814   1.538       .  S
C813        C819   1.531       .  S
C813        C817   1.546       .  S
C813       C1530   1.541       .  S
C814        H821   1.087       .  S
C814        C815   1.363       .  D
C815        C816   1.543       .  S
C815       C1047   1.472       .  S
C816        C820   1.531       .  S
C816        C818   1.548       .  S
C816        H822   1.111       .  S
C817        H823   1.078       .  S
C817        C818   1.371       .  D
C818       C2345   1.489       .  S
C819        H824   1.088       .  S
C819        C820   1.359       .  D
C820        C902   1.460       .  S
C825        C826   1.538       .  S
C825        C831   1.537       .  S
C825        C829   1.532       .  S
C825       C2233   1.530       .  S
C826        H833   1.081       .  S
C826        C827   1.365       .  D
C827        C828   1.533       .  S
C827       C1074   1.464       .  S
C828        C832   1.539       .  S
C828        C830   1.549       .  S
C828        H834   1.111       .  S
C829        H835   1.087       .  S
C829        C830   1.362       .  D
C830       C2555   1.484       .  S
C831        H836   1.086       .  S
C831        C832   1.362       .  D
C832        C903   1.464       .  S
O837       Cu845   1.999       .  S
O837        C847   1.276   1_455  A
O838       Cu845   2.009       .  S
O838        C848   1.276       .  A
O839       Cu845   2.026       .  S
O839        C849   1.281   1_455  A
O840       Cu845   2.004       .  S
O840        C850   1.277       .  A
O841       Cu846   1.974       .  S
O841        C850   1.275       .  A
O842       Cu846   1.992       .  S
O842        C849   1.274   1_455  A
O843       Cu846   1.991       .  S
O843        C848   1.278       .  A
O844       Cu846   1.983       .  S
O844        C847   1.275   1_455  A
Cu845      Cu846   2.375       .  S
C847       C1519   1.462       .  S
C850       C1502   1.468       .  S
O851       Cu859   1.999       .  S
O851        C861   1.275       .  A
O852       Cu859   1.997   1_565  S
O852        C862   1.275       .  A
O853       Cu859   2.020       .  S
O853        C863   1.279       .  A
O854       Cu859   1.999   1_565  S
O854        C864   1.277       .  A
O855       Cu860   1.982   1_565  S
O855        C864   1.275       .  A
O856       Cu860   1.989       .  S
O856        C863   1.274       .  A
O857       Cu860   1.991   1_565  S
O857        C862   1.276       .  A
O858       Cu860   1.978       .  S
O858        C861   1.276       .  A
Cu859      Cu860   2.378       .  S
C861       C1491   1.471       .  S
C864       C1516   1.461       .  S
C865        C866   1.539       .  S
C865        C871   1.538       .  S
C865        C869   1.549       .  S
C865       C2107   1.548       .  S
C866        H873   1.087       .  S
C866        C867   1.364       .  D
C867        C868   1.542       .  S
C867        C888   1.472       .  S
C868        C872   1.528       .  S
C868        C870   1.540       .  S
C868        H874   1.111       .  S
C869        H875   1.077       .  S
C869        C870   1.370       .  D
C870       C2415   1.484       .  S
C871        H876   1.087       .  S
C871        C872   1.364       .  D
C872       C1033   1.465       .  S
O877       Cu885   1.998       .  S
O877        C887   1.278       .  A
O878       Cu885   2.005   1_565  S
O878        C888   1.278       .  A
O879       Cu885   1.989       .  S
O879        C889   1.273       .  A
O880       Cu885   1.979   1_565  S
O880        C890   1.274       .  A
O881       Cu886   2.004   1_565  S
O881        C890   1.277       .  A
O882       Cu886   2.030       .  S
O882        C889   1.281       .  A
O883       Cu886   2.012   1_565  S
O883        C888   1.277       .  A
O884       Cu886   2.005       .  S
O884        C887   1.277       .  A
Cu885      Cu886   2.374       .  S
C887       C1474   1.475       .  S
C889        C907   1.469       .  S
C890       C1505   1.471       .  S
O891       Cu899   1.984       .  S
O891        C901   1.275   1_455  A
O892       Cu899   1.988       .  S
O892        C902   1.275       .  A
O893       Cu899   1.992       .  S
O893        C903   1.275   1_455  A
O894       Cu899   1.989       .  S
O894        C904   1.276       .  A
O895       Cu900   2.017       .  S
O895        C904   1.279       .  A
O896       Cu900   2.011       .  S
O896        C903   1.277   1_455  A
O897       Cu900   2.012       .  S
O897        C902   1.277       .  A
O898       Cu900   1.992       .  S
O898        C901   1.275   1_455  A
Cu899      Cu900   2.375       .  S
C901       C1488   1.468       .  S
C904       C1477   1.477       .  S
C905        C906   1.535       .  S
C905        C911   1.528       .  S
C905        C909   1.541       .  S
C905       C1533   1.538       .  S
C906        H913   1.087       .  S
C906        C907   1.363       .  D
C907        C908   1.533       .  S
C908        C912   1.546       .  S
C908        C910   1.564       .  S
C908        H914   1.109       .  S
C909        H915   1.078       .  S
C909        C910   1.375       .  D
C910       C2513   1.517       .  S
C911        H916   1.087       .  S
C911        C912   1.360       .  D
C912       C1060   1.469       .  S
O917       Cu925   1.980       .  S
O917        C927   1.276       .  A
O918       Cu925   1.989   1_565  S
O918        C928   1.273       .  A
O919       Cu925   1.981       .  S
O919        C929   1.276       .  A
O920       Cu925   1.981   1_565  S
O920        C930   1.276       .  A
O921       Cu926   1.995   1_565  S
O921        C930   1.276       .  A
O922       Cu926   2.007       .  S
O922        C929   1.275       .  A
O923       Cu926   2.034   1_565  S
O923        C928   1.281       .  A
O924       Cu926   2.016       .  S
O924        C927   1.278       .  A
Cu925      Cu926   2.373       .  S
C927       C1446   1.485       .  S
C930       C1460   1.469       .  S
O931       Cu939   1.983       .  S
O931        C941   1.276   1_455  A
O932       Cu939   1.978       .  S
O932        C942   1.276       .  A
O933       Cu939   1.986       .  S
O933        C943   1.273   1_455  A
O934       Cu939   1.976       .  S
O934        C944   1.274       .  A
O935       Cu940   2.007       .  S
O935        C944   1.279       .  A
O936       Cu940   2.032       .  S
O936        C943   1.281   1_455  A
O937       Cu940   2.008       .  S
O937        C942   1.275       .  A
O938       Cu940   1.990       .  S
O938        C941   1.275   1_455  A
Cu939      Cu940   2.377       .  S
C941       C1463   1.468       .  S
C943       C1242   1.470       .  S
C944       C1435   1.473       .  S
O945       Cu953   1.992       .  S
O945        C955   1.276       .  A
O946       Cu953   2.016       .  S
O946        C956   1.278   1_455  A
O947       Cu953   2.002       .  S
O947        C957   1.276       .  A
O948       Cu953   1.980       .  S
O948        C958   1.275       .  A
O949       Cu954   2.012       .  S
O949        C958   1.278       .  A
O950       Cu954   2.016       .  S
O950        C957   1.278       .  A
O951       Cu954   2.026       .  S
O951        C956   1.279   1_455  A
O952       Cu954   2.018       .  S
O952        C955   1.279       .  A
Cu953      Cu954   2.369       .  S
C955       C1421   1.485       .  S
C956        C966   1.480       .  S
C957        C999   1.470       .  S
C958       C1449   1.482   1_455  S
C959        C960   1.532       .  S
C959        C965   1.543       .  S
C959        C963   1.542       .  S
C959       C2401   1.543       .  S
C960        H967   1.087       .  S
C960        C961   1.362       .  D
C961        C962   1.544       .  S
C961       C1075   1.477       .  S
C962        C966   1.540       .  S
C962        C964   1.555       .  S
C962        H968   1.111       .  S
C963        H969   1.085       .  S
C963        C964   1.366       .  D
C964       C1544   1.495       .  S
C965        H970   1.085       .  S
C965        C966   1.370       .  D
O971       Cu979   2.029       .  S
O971        C981   1.280       .  A
O972       Cu979   2.029   1_565  S
O972        C982   1.280       .  A
O973       Cu979   2.004       .  S
O973        C983   1.276       .  A
O974       Cu979   1.997   1_565  S
O974        C984   1.276       .  A
O975       Cu980   1.991   1_565  S
O975        C984   1.277       .  A
O976       Cu980   1.999       .  S
O976        C983   1.277       .  A
O977       Cu980   1.997   1_565  S
O977        C982   1.275       .  A
O978       Cu980   1.978       .  S
O978        C981   1.276       .  A
Cu979      Cu980   2.372       .  S
C981       C1418   1.486       .  S
C982        C987   1.472       .  S
C983       C1016   1.465       .  S
C984       C1432   1.474       .  S
C985        C986   1.537       .  S
C985        C991   1.533       .  S
C985        C989   1.550       .  S
C985       C2583   1.545       .  S
C986        H993   1.087       .  S
C986        C987   1.366       .  D
C987        C988   1.536       .  S
C988        C992   1.549       .  S
C988        C990   1.556       .  S
C988        H994   1.111       .  S
C989        H995   1.083       .  S
C989        C990   1.371       .  D
C990       C1729   1.504       .  S
C991        H996   1.087       .  S
C991        C992   1.361       .  D
C992       C1032   1.476       .  S
C997        C998   1.537       .  S
C997       C1003   1.529       .  S
C997       C1001   1.537       .  S
C997       C1390   1.539       .  S
C998       H1005   1.084       .  S
C998        C999   1.366       .  D
C999       C1000   1.529       .  S
C1000      C1004   1.549       .  S
C1000      C1002   1.561       .  S
C1000      H1006   1.110       .  S
C1001      H1007   1.078       .  S
C1001      C1002   1.368       .  D
C1002      C1404   1.506       .  S
C1003      H1008   1.087       .  S
C1003      C1004   1.362       .  D
C1004      C1046   1.471       .  S
C1009      C1010   1.538       .  S
C1009      C1015   1.536       .  S
C1009      C1013   1.546       .  S
C1009      C1393   1.550       .  S
C1010      H1017   1.087       .  S
C1010      C1011   1.363       .  D
C1011      C1012   1.546       .  S
C1011      C1061   1.476       .  S
C1012      C1016   1.530       .  S
C1012      C1014   1.544       .  S
C1012      H1018   1.111       .  S
C1013      H1019   1.072       .  S
C1013      C1014   1.368       .  D
C1014      C1379   1.488       .  S
C1015      H1020   1.088       .  S
C1015      C1016   1.364       .  D
O1021     Cu1029   2.001       .  S
O1021      C1031   1.276       .  A
O1022     Cu1029   2.007       .  S
O1022      C1032   1.276       .  A
O1023     Cu1029   2.017       .  S
O1023      C1033   1.278       .  A
O1024     Cu1029   1.987       .  S
O1024      C1034   1.277       .  A
O1025     Cu1030   1.980       .  S
O1025      C1034   1.274       .  A
O1026     Cu1030   1.988       .  S
O1026      C1033   1.274       .  A
O1027     Cu1030   2.015       .  S
O1027      C1032   1.280       .  A
O1028     Cu1030   2.008       .  S
O1028      C1031   1.279       .  A
Cu1029    Cu1030   2.374       .  S
C1031      C1967   1.481       .  S
C1034      C1362   1.464       .  S
O1035     Cu1043   2.005       .  S
O1035      C1045   1.277       .  A
O1036     Cu1043   2.034       .  S
O1036      C1046   1.280       .  A
O1037     Cu1043   2.025       .  S
O1037      C1047   1.279       .  A
O1038     Cu1043   1.996       .  S
O1038      C1048   1.277       .  A
O1039     Cu1044   1.983       .  S
O1039      C1048   1.275       .  A
O1040     Cu1044   1.988       .  S
O1040      C1047   1.275       .  A
O1041     Cu1044   1.977       .  S
O1041      C1046   1.274       .  A
O1042     Cu1044   1.974       .  S
O1042      C1045   1.275       .  A
Cu1043    Cu1044   2.376       .  S
C1045      C2009   1.468       .  S
C1048      C1348   1.466       .  S
O1049     Cu1057   1.991       .  S
O1049      C1059   1.276       .  A
O1050     Cu1057   2.022       .  S
O1050      C1060   1.278       .  A
O1051     Cu1057   2.030       .  S
O1051      C1061   1.280       .  A
O1052     Cu1057   2.004       .  S
O1052      C1062   1.278       .  A
O1053     Cu1058   1.981       .  S
O1053      C1062   1.273       .  A
O1054     Cu1058   1.989       .  S
O1054      C1061   1.276       .  A
O1055     Cu1058   1.980       .  S
O1055      C1060   1.275       .  A
O1056     Cu1058   1.975       .  S
O1056      C1059   1.274       .  A
Cu1057    Cu1058   2.375       .  S
C1059      C1334   1.462       .  S
C1062      C2020   1.473       .  S
O1063     Cu1071   2.001       .  S
O1063      C1073   1.276       .  A
O1064     Cu1071   2.020       .  S
O1064      C1074   1.279       .  A
O1065     Cu1071   2.032       .  S
O1065      C1075   1.280       .  A
O1066     Cu1071   2.028       .  S
O1066      C1076   1.280       .  A
O1067     Cu1072   1.995       .  S
O1067      C1076   1.277       .  A
O1068     Cu1072   1.998       .  S
O1068      C1075   1.276       .  A
O1069     Cu1072   1.987       .  S
O1069      C1074   1.274       .  A
O1070     Cu1072   1.983       .  S
O1070      C1073   1.276       .  A
Cu1071    Cu1072   2.372       .  S
C1073      C1323   1.469       .  S
C1076      C2062   1.493       .  S
C1077      C1078   1.532       .  S
C1077      C1083   1.530       .  S
C1077      C1081   1.551       .  S
C1077      C1407   1.543       .  S
C1078      H1085   1.087       .  S
C1078      C1079   1.362       .  D
C1079      C1080   1.545       .  S
C1080      C1084   1.538       .  S
C1080      C1082   1.562       .  S
C1080      H1086   1.111       .  S
C1081      H1087   1.084       .  S
C1081      C1082   1.374       .  D
C1082      C1309   1.510       .  S
C1083      H1088   1.087       .  S
C1083      C1084   1.360       .  D
C1084      C1154   1.467       .  S
C1089      C1090   1.531       .  S
C1089      C1095   1.532       .  S
C1089      C1093   1.551       .  S
C1089      C1292   1.546       .  S
C1090      H1097   1.085       .  S
C1090      C1091   1.361       .  D
C1091      C1092   1.536       .  S
C1091      C1114   1.466       .  S
C1092      C1096   1.546       .  S
C1092      C1094   1.558       .  S
C1092      H1098   1.111       .  S
C1093      H1099   1.085       .  S
C1093      C1094   1.375       .  D
C1094      C1306   1.509       .  S
C1095      H1100   1.087       .  S
C1095      C1096   1.364       .  D
O1101     Cu1109   1.978       .  S
O1101      C1111   1.277       .  A
O1102     Cu1109   1.983       .  S
O1102      C1112   1.275       .  A
O1103     Cu1109   1.977       .  S
O1103      C1113   1.274       .  A
O1104     Cu1109   1.985       .  S
O1104      C1114   1.273       .  A
O1105     Cu1110   2.030       .  S
O1105      C1114   1.281       .  A
O1106     Cu1110   2.013       .  S
O1106      C1113   1.279       .  A
O1107     Cu1110   1.988       .  S
O1107      C1112   1.276       .  A
O1108     Cu1110   1.992       .  S
O1108      C1111   1.273       .  A
Cu1109    Cu1110   2.376       .  S
C1112      C1278   1.466       .  S
C1113      C1894   1.476       .  S
O1115     Cu1123   1.979       .  S
O1115      C1125   1.275       .  A
O1116     Cu1123   2.004       .  S
O1116      C1126   1.276       .  A
O1117     Cu1123   2.002       .  S
O1117      C1127   1.276       .  A
O1118     Cu1123   1.996       .  S
O1118      C1128   1.279       .  A
O1119     Cu1124   2.015       .  S
O1119      C1128   1.277       .  A
O1120     Cu1124   2.029       .  S
O1120      C1127   1.280       .  A
O1121     Cu1124   2.031       .  S
O1121      C1126   1.280       .  A
O1122     Cu1124   2.013       .  S
O1122      C1125   1.278       .  A
Cu1123    Cu1124   2.369       .  S
C1125      C1320   1.473       .  S
C1128      C2093   1.489       .  S
O1129     Cu1137   1.968       .  S
O1129      C1139   1.273       .  A
O1130     Cu1137   1.988       .  S
O1130      C1140   1.275       .  A
O1131     Cu1137   1.995       .  S
O1131      C1141   1.277       .  A
O1132     Cu1137   1.989       .  S
O1132      C1142   1.277       .  A
O1133     Cu1138   2.013       .  S
O1133      C1142   1.278       .  A
O1134     Cu1138   2.037       .  S
O1134      C1141   1.280       .  A
O1135     Cu1138   2.037       .  S
O1135      C1140   1.281       .  A
O1136     Cu1138   1.995       .  S
O1136      C1139   1.277       .  A
Cu1137    Cu1138   2.372       .  S
C1139      C1883   1.466       .  S
C1142      C1267   1.485       .  S
O1143     Cu1151   1.972       .  S
O1143      C1153   1.274       .  A
O1144     Cu1151   1.982       .  S
O1144      C1154   1.272       .  A
O1145     Cu1151   1.971       .  S
O1145      C1155   1.276       .  A
O1146     Cu1151   1.984       .  S
O1146      C1156   1.276       .  A
O1147     Cu1152   1.993       .  S
O1147      C1156   1.276       .  A
O1148     Cu1152   1.991       .  S
O1148      C1155   1.273       .  A
O1149     Cu1152   2.039       .  S
O1149      C1154   1.282       .  A
O1150     Cu1152   2.014       .  S
O1150      C1153   1.279       .  A
Cu1151    Cu1152   2.378       .  S
C1153      C1981   1.471       .  S
C1156      C1351   1.465       .  S
C1157      C1158   1.531       .  S
C1157      C1163   1.532       .  S
C1157      C1161   1.550       .  S
C1157      C1250   1.545       .  S
C1158      H1165   1.086       .  S
C1158      C1159   1.362       .  D
C1159      C1160   1.533       .  S
C1160      C1164   1.534       .  S
C1160      C1162   1.545       .  S
C1160      H1166   1.111       .  S
C1161      H1167   1.082       .  S
C1161      C1162   1.375       .  D
C1162      C1376   1.487       .  S
C1163      H1168   1.087       .  S
C1163      C1164   1.361       .  D
C1164      C1207   1.464       .  S
C1169      C1170   1.532       .  S
C1169      C1175   1.544       .  S
C1169      C1173   1.538       .  S
C1169      C1253   1.547       .  S
C1170      H1177   1.087       .  S
C1170      C1171   1.363       .  D
C1171      C1172   1.551       .  S
C1171      C1220   1.482       .  S
C1172      C1176   1.530       .  S
C1172      C1174   1.562       .  S
C1172      H1178   1.110       .  S
C1173      H1179   1.073       .  S
C1173      C1174   1.372       .  D
C1174      C1295   1.511       .  S
C1175      H1180   1.087       .  S
C1175      C1176   1.366       .  D
O1181     Cu1189   1.998       .  S
O1181      C1191   1.276       .  A
O1182     Cu1189   2.026       .  S
O1182      C1192   1.280       .  A
O1183     Cu1189   2.024       .  S
O1183      C1193   1.279       .  A
O1184     Cu1189   2.019       .  S
O1184      C1194   1.280       .  A
O1185     Cu1190   1.978       .  S
O1185      C1194   1.274       .  A
O1186     Cu1190   1.985       .  S
O1186      C1193   1.276       .  A
O1187     Cu1190   1.991       .  S
O1187      C1192   1.274       .  A
O1188     Cu1190   1.982       .  S
O1188      C1191   1.276       .  A
Cu1189    Cu1190   2.372       .  S
C1191      C1855   1.467       .  S
C1194      C1264   1.484       .  S
O1195     Cu1203   1.970       .  S
O1195      C1205   1.274       .  A
O1196     Cu1203   1.959       .  S
O1196      C1206   1.274       .  A
O1197     Cu1203   1.975       .  S
O1197      C1207   1.274       .  A
O1198     Cu1203   1.978       .  S
O1198      C1208   1.274       .  A
O1199     Cu1204   2.000       .  S
O1199      C1208   1.278       .  A
O1200     Cu1204   2.017       .  S
O1200      C1207   1.278       .  A
O1201     Cu1204   2.011       .  S
O1201      C1206   1.276       .  A
O1202     Cu1204   1.996       .  S
O1202      C1205   1.277       .  A
Cu1203    Cu1204   2.377       .  S
C1205      C1337   1.461       .  S
C1208      C2051   1.475       .  S
O1209     Cu1217   1.994       .  S
O1209      C1219   1.278       .  A
O1210     Cu1217   1.999       .  S
O1210      C1220   1.276       .  A
O1211     Cu1217   1.998       .  S
O1211      C1221   1.277       .  A
O1212     Cu1217   1.984       .  S
O1212      C1222   1.276       .  A
O1213     Cu1218   1.991       .  S
O1213      C1222   1.275       .  A
O1214     Cu1218   2.030       .  S
O1214      C1221   1.279       .  A
O1215     Cu1218   2.043       .  S
O1215      C1220   1.282       .  A
O1216     Cu1218   2.017       .  S
O1216      C1219   1.278       .  A
Cu1217    Cu1218   2.371       .  S
C1219      C1925   1.488       .  S
C1222      C1281   1.469       .  S
O1223     Cu1231   2.005       .  S
O1223      C1233   1.276       .  A
O1224     Cu1231   1.972       .  S
O1224      C1234   1.274       .  A
O1225     Cu1231   2.009       .  S
O1225      C1235   1.279       .  A
O1226     Cu1231   2.018       .  S
O1226      C1236   1.278       .  A
O1227     Cu1232   2.006       .  S
O1227      C1236   1.279       .  A
O1228     Cu1232   1.992       .  S
O1228      C1235   1.276       .  A
O1229     Cu1232   1.996       .  S
O1229      C1234   1.277       .  A
O1230     Cu1232   2.007       .  S
O1230      C1233   1.277       .  A
Cu1231    Cu1232   2.373       .  S
C1234      C1365   1.464       .  S
C1235      C1939   1.478       .  S
C1237      C1238   1.541       .  S
C1237      C1243   1.539       .  S
C1237      C1241   1.536       .  S
C1237      C1673   1.538       .  S
C1238      H1245   1.086       .  S
C1238      C1239   1.367       .  D
C1239      C1240   1.546       .  S
C1239      C2163   1.484       .  S
C1240      C1244   1.525       .  S
C1240      C1242   1.537       .  S
C1240      H1246   1.111       .  S
C1241      H1247   1.087       .  S
C1241      C1242   1.365       .  D
C1243      H1248   1.081       .  S
C1243      C1244   1.363       .  D
C1249      C1250   1.409       .  A
C1249      C1254   1.410       .  A
C1249      H1256   1.077       .  S
C1250      C1251   1.429       .  A
C1251      C1252   1.397       .  A
C1251      N1258   1.436       .  S
C1252      C1253   1.406       .  A
C1252      H1257   1.084       .  S
C1253      C1254   1.421       .  A
C1254      N1255   1.429       .  S
N1255      H1259   1.046       .  S
N1255      H1260   1.046       .  S
N1258      H1261   1.040       .  S
N1258      H1262   1.042       .  S
C1263      C1264   1.406       .  A
C1263      C1268   1.406       .  A
C1263      H1270   1.084       .  S
C1264      C1265   1.414       .  A
C1265      C1266   1.394       .  A
C1265      N1272   1.433       .  S
C1266      C1267   1.403       .  A
C1266      H1271   1.083       .  S
C1267      C1268   1.414       .  A
C1268      N1269   1.432       .  S
N1269      H1273   1.046       .  S
N1269      H1274   1.046       .  S
N1272      H1275   1.046       .  S
N1272      H1276   1.046       .  S
C1277      C1278   1.402       .  A
C1277      C1282   1.393       .  A
C1277      H1284   1.084       .  S
C1278      C1279   1.408       .  A
C1279      C1280   1.394       .  A
C1279      N1286   1.433       .  S
C1280      C1281   1.403       .  A
C1280      H1285   1.084       .  S
C1281      C1282   1.415       .  A
C1282      N1283   1.433       .  S
N1283      H1287   1.045       .  S
N1283      H1288   1.046       .  S
N1286      H1289   1.046       .  S
N1286      H1290   1.046       .  S
C1291      C1292   1.404       .  A
C1291      C1296   1.406       .  A
C1291      H1298   1.081       .  S
C1292      C1293   1.428       .  A
C1293      C1294   1.414       .  A
C1293      N1300   1.438       .  S
C1294      C1295   1.402       .  A
C1294      H1299   1.083       .  S
C1295      C1296   1.421       .  A
C1296      N1297   1.433       .  S
N1297      H1301   1.046       .  S
N1297      H1302   1.046       .  S
N1300      H1303   1.045       .  S
N1300      H1304   1.045       .  S
C1305      C1306   1.408       .  A
C1305      C1310   1.415       .  A
C1305      H1312   1.084       .  S
C1306      C1307   1.417       .  A
C1307      C1308   1.411       .  A
C1307      N1314   1.432       .  S
C1308      C1309   1.408       .  A
C1308      H1313   1.084       .  S
C1309      C1310   1.418       .  A
C1310      N1311   1.432       .  S
N1311      H1315   1.046       .  S
N1311      H1316   1.045       .  S
N1314      H1317   1.046       .  S
N1314      H1318   1.044       .  S
C1319      C1320   1.402       .  A
C1319      C1324   1.393       .  A
C1319      H1326   1.084       .  S
C1320      C1321   1.410       .  A
C1321      C1322   1.404       .  A
C1321      N1328   1.432       .  S
C1322      C1323   1.404       .  A
C1322      H1327   1.084       .  S
C1323      C1324   1.408       .  A
C1324      N1325   1.433       .  S
N1325      H1329   1.046       .  S
N1325      H1330   1.046       .  S
N1328      H1331   1.046       .  S
N1328      H1332   1.046   1_655  S
C1333      C1334   1.403       .  A
C1333      C1338   1.398       .  A
C1333      H1340   1.084       .  S
C1334      C1335   1.408       .  A
C1335      C1336   1.393       .  A
C1335      N1342   1.433       .  S
C1336      C1337   1.401       .  A
C1336      H1341   1.084       .  S
C1337      C1338   1.407       .  A
C1338      N1339   1.433       .  S
N1339      H1343   1.046       .  S
N1339      H1344   1.046       .  S
N1342      H1345   1.046       .  S
N1342      H1346   1.046       .  S
C1347      C1348   1.402       .  A
C1347      C1352   1.399       .  A
C1347      H1354   1.084       .  S
C1348      C1349   1.409       .  A
C1349      C1350   1.395       .  A
C1349      N1356   1.433       .  S
C1350      C1351   1.401       .  A
C1350      H1355   1.084       .  S
C1351      C1352   1.409       .  A
C1352      N1353   1.433       .  S
N1353      H1357   1.046       .  S
N1353      H1358   1.046       .  S
N1356      H1359   1.046       .  S
N1356      H1360   1.046       .  S
C1361      C1362   1.400       .  A
C1361      C1366   1.392       .  A
C1361      H1368   1.084       .  S
C1362      C1363   1.413       .  A
C1363      C1364   1.400       .  A
C1363      N1370   1.438       .  S
C1364      C1365   1.401       .  A
C1364      H1369   1.084       .  S
C1365      C1366   1.409       .  A
C1366      N1367   1.433       .  S
N1367      H1371   1.046       .  S
N1367      H1372   1.046       .  S
N1370      H1373   1.046       .  S
N1370      H1374   1.046       .  S
C1375      C1376   1.403       .  A
C1375      C1380   1.410       .  A
C1375      H1382   1.084       .  S
C1376      C1377   1.408       .  A
C1377      C1378   1.404       .  A
C1377      N1384   1.432       .  S
C1378      C1379   1.404       .  A
C1378      H1383   1.084       .  S
C1379      C1380   1.410       .  A
C1380      N1381   1.432       .  S
N1381      H1385   1.045       .  S
N1381      H1386   1.046       .  S
N1384      H1387   1.045       .  S
N1384      H1388   1.046       .  S
C1389      C1390   1.408       .  A
C1389      C1394   1.402       .  A
C1389      H1396   1.076       .  S
C1390      C1391   1.411       .  A
C1391      C1392   1.401       .  A
C1391      N1398   1.433       .  S
C1392      C1393   1.413       .  A
C1392      H1397   1.084       .  S
C1393      C1394   1.427       .  A
C1394      N1395   1.427       .  S
N1395      H1399   1.045       .  S
N1395      H1400   1.044       .  S
N1398      H1401   1.046       .  S
N1398      H1402   1.045       .  S
C1403      C1404   1.401       .  A
C1403      C1408   1.412       .  A
C1403      H1410   1.083       .  S
C1404      C1405   1.421       .  A
C1405      C1406   1.403       .  A
C1405      N1412   1.433       .  S
C1406      C1407   1.403       .  A
C1406      H1411   1.080       .  S
C1407      C1408   1.429       .  A
C1408      N1409   1.439       .  S
N1409      H1413   1.046       .  S
N1409      H1414   1.044       .  S
N1412      H1415   1.046       .  S
N1412      H1416   1.046       .  S
C1417      C1418   1.404       .  A
C1417      C1422   1.397       .  A
C1417      H1424   1.083       .  S
C1418      C1419   1.413       .  A
C1419      C1420   1.411       .  A
C1419      N1426   1.437       .  S
C1420      C1421   1.408       .  A
C1420      H1425   1.083       .  S
C1421      C1422   1.414       .  A
C1422      N1423   1.439       .  S
N1423      H1427   1.046       .  S
N1423      H1428   1.044       .  S
N1426      H1429   1.046       .  S
N1426      H1430   1.045       .  S
C1431      C1432   1.402       .  A
C1431      C1436   1.395       .  A
C1431      H1438   1.084       .  S
C1432      C1433   1.414       .  A
C1433      C1434   1.403       .  A
C1433      N1440   1.438       .  S
C1434      C1435   1.402       .  A
C1434      H1439   1.084       .  S
C1435      C1436   1.411       .  A
C1436      N1437   1.433       .  S
N1437      H1441   1.046       .  S
N1437      H1442   1.046       .  S
N1440      H1443   1.046       .  S
N1440      H1444   1.046       .  S
C1445      C1446   1.404       .  A
C1445      C1450   1.392       .  A
C1445      H1452   1.083       .  S
C1446      C1447   1.416       .  A
C1447      C1448   1.410       .  A
C1447      N1454   1.437       .  S
C1448      C1449   1.408       .  A
C1448      H1453   1.083       .  S
C1449      C1450   1.412       .  A
C1450      N1451   1.433       .  S
N1451      H1455   1.046       .  S
N1451      H1456   1.046       .  S
N1454      H1457   1.046       .  S
N1454      H1458   1.046       .  S
C1459      C1460   1.402       .  A
C1459      C1464   1.393       .  A
C1459      H1466   1.084       .  S
C1460      C1461   1.410       .  A
C1461      C1462   1.400       .  A
C1461      N1468   1.433       .  S
C1462      C1463   1.403       .  A
C1462      H1467   1.084       .  S
C1463      C1464   1.408       .  A
C1464      N1465   1.433       .  S
N1465      H1469   1.046   1_655  S
N1465      H1470   1.046       .  S
N1468      H1471   1.046       .  S
N1468      H1472   1.046       .  S
C1473      C1474   1.401       .  A
C1473      C1478   1.398       .  A
C1473      H1480   1.084       .  S
C1474      C1475   1.410       .  A
C1475      C1476   1.405       .  A
C1475      N1482   1.432       .  S
C1476      C1477   1.404       .  A
C1476      H1481   1.084       .  S
C1477      C1478   1.411       .  A
C1478      N1479   1.433       .  S
N1479      H1483   1.046       .  S
N1479      H1484   1.046       .  S
N1482      H1485   1.044       .  S
N1482      H1486   1.046       .  S
C1487      C1488   1.404       .  A
C1487      C1492   1.398       .  A
C1487      H1494   1.084       .  S
C1488      C1489   1.413       .  A
C1489      C1490   1.387       .  A
C1489      N1496   1.433       .  S
C1490      C1491   1.401       .  A
C1490      H1495   1.084       .  S
C1491      C1492   1.416       .  A
C1492      N1493   1.433       .  S
N1493      H1497   1.046       .  S
N1493      H1498   1.045       .  S
N1496      H1499   1.044       .  S
N1496      H1500   1.046   1_655  S
C1501      C1502   1.400       .  A
C1501      C1506   1.387       .  A
C1501      H1508   1.085       .  S
C1502      C1503   1.413       .  A
C1503      C1504   1.399       .  A
C1503      N1510   1.432       .  S
C1504      C1505   1.406       .  A
C1504      H1509   1.084       .  S
C1505      C1506   1.416       .  A
C1506      N1507   1.434       .  S
N1507      H1511   1.046       .  S
N1507      H1512   1.044       .  S
N1510      H1513   1.045       .  S
N1510      H1514   1.046       .  S
C1515      C1516   1.401       .  A
C1515      C1520   1.398       .  A
C1515      H1522   1.084       .  S
C1516      C1517   1.405       .  A
C1517      C1518   1.399       .  A
C1517      N1524   1.432       .  S
C1518      C1519   1.402       .  A
C1518      H1523   1.084       .  S
C1519      C1520   1.410       .  A
C1520      N1521   1.439   1_655  S
N1521      H1525   1.046   1_455  S
N1521      H1526   1.046       .  S
N1524      H1527   1.046       .  S
N1524      H1528   1.045       .  S
C1529      C1530   1.409       .  A
C1529      C1534   1.397       .  A
C1529      H1536   1.084       .  S
C1530      C1531   1.418       .  A
C1531      C1532   1.409       .  A
C1531      N1538   1.428       .  S
C1532      C1533   1.409       .  A
C1532      H1537   1.076       .  S
C1533      C1534   1.414       .  A
C1534      N1535   1.434       .  S
N1535      H1539   1.046       .  S
N1535      H1540   1.046       .  S
N1538      H1541   1.046       .  S
N1538      H1542   1.046       .  S
C1543      C1544   1.403       .  A
C1543      C1548   1.411       .  A
C1543      H1550   1.084       .  S
C1544      C1545   1.405       .  A
C1545      C1546   1.413       .  A
C1545      N1552   1.437       .  S
C1546      C1547   1.418       .  A
C1546      H1551   1.074       .  S
C1547      C1548   1.420       .  A
C1548      N1549   1.432       .  S
N1549      H1553   1.046       .  S
N1549      H1554   1.046       .  S
N1552      H1555   1.046       .  S
N1552      H1556   1.044       .  S
C1557      C1558   1.404       .  A
C1557      C1562   1.390       .  A
C1557      H1564   1.083       .  S
C1558      C1559   1.418       .  A
C1559      C1560   1.399       .  A
C1559      N1566   1.433       .  S
C1560      C1561   1.406       .  A
C1560      H1565   1.084       .  S
C1561      C1562   1.410       .  A
C1562      N1563   1.433       .  S
N1563      H1567   1.046       .  S
N1563      H1568   1.045       .  S
N1566      H1569   1.045       .  S
N1566      H1570   1.045       .  S
C1571      C1572   1.406       .  A
C1571      C1576   1.400       .  A
C1571      H1578   1.084       .  S
C1572      C1573   1.419       .  A
C1573      C1574   1.399       .  A
C1573      N1580   1.432       .  S
C1574      C1575   1.404       .  A
C1574      H1579   1.084       .  S
C1575      C1576   1.413       .  A
C1576      N1577   1.433       .  S
N1577      H1581   1.046       .  S
N1577      H1582   1.046       .  S
N1580      H1583   1.046       .  S
N1580      H1584   1.045       .  S
C1585      C1586   1.404       .  A
C1585      C1590   1.394       .  A
C1585      H1592   1.084       .  S
C1586      C1587   1.415       .  A
C1587      C1588   1.390       .  A
C1587      N1594   1.433       .  S
C1588      C1589   1.403       .  A
C1588      H1593   1.084       .  S
C1589      C1590   1.409       .  A
C1590      N1591   1.433       .  S
N1591      H1595   1.046       .  S
N1591      H1596   1.046       .  S
N1594      H1597   1.045       .  S
N1594      H1598   1.045       .  S
C1599      C1600   1.405       .  A
C1599      C1604   1.408       .  A
C1599      H1606   1.083       .  S
C1600      C1601   1.414       .  A
C1601      C1602   1.400       .  A
C1601      N1608   1.438       .  S
C1602      C1603   1.402       .  A
C1602      H1607   1.084       .  S
C1603      C1604   1.414       .  A
C1604      N1605   1.438       .  S
N1605      H1609   1.046       .  S
N1605      H1610   1.046       .  S
N1608      H1611   1.045       .  S
N1608      H1612   1.046       .  S
C1613      C1614   1.401       .  A
C1613      C1618   1.395       .  A
C1613      H1620   1.084       .  S
C1614      C1615   1.410       .  A
C1615      C1616   1.402       .  A
C1615      N1622   1.432       .  S
C1616      C1617   1.405       .  A
C1616      H1621   1.084       .  S
C1617      C1618   1.418       .  A
C1618      N1619   1.433       .  S
N1619      H1623   1.044       .  S
N1619      H1624   1.046       .  S
N1622      H1625   1.046       .  S
N1622      H1626   1.046       .  S
C1627      C1628   1.402       .  A
C1627      C1632   1.397       .  A
C1627      H1634   1.084       .  S
C1628      C1629   1.412       .  A
C1629      C1630   1.400       .  A
C1629      N1636   1.438       .  S
C1630      C1631   1.403       .  A
C1630      H1635   1.084       .  S
C1631      C1632   1.411       .  A
C1632      N1633   1.439       .  S
N1633      H1637   1.046       .  S
N1633      H1638   1.046   1_655  S
N1636      H1639   1.046       .  S
N1636      H1640   1.046       .  S
C1641      C1642   1.403       .  A
C1641      C1646   1.397       .  A
C1641      H1648   1.084       .  S
C1642      C1643   1.416       .  A
C1643      C1644   1.392       .  A
C1643      N1650   1.433       .  S
C1644      C1645   1.401       .  A
C1644      H1649   1.084       .  S
C1645      C1646   1.417       .  A
C1646      N1647   1.433       .  S
N1647      H1651   1.046       .  S
N1647      H1652   1.045       .  S
N1650      H1653   1.044       .  S
N1650      H1654   1.046       .  S
C1655      C1656   1.403       .  A
C1655      C1660   1.399       .  A
C1655      H1662   1.084       .  S
C1656      C1657   1.412       .  A
C1657      C1658   1.407       .  A
C1657      N1664   1.432       .  S
C1658      C1659   1.406       .  A
C1658      H1663   1.083       .  S
C1659      C1660   1.414       .  A
C1660      N1661   1.433       .  S
N1661      H1665   1.046       .  S
N1661      H1666   1.046       .  S
N1664      H1667   1.046       .  S
N1664      H1668   1.046       .  S
C1669      C1670   1.402       .  A
C1669      C1674   1.404       .  A
C1669      H1676   1.084       .  S
C1670      C1671   1.397       .  A
C1671      C1672   1.403       .  A
C1671      N1678   1.426       .  S
C1672      C1673   1.415       .  A
C1672      H1677   1.076       .  S
C1673      C1674   1.417       .  A
C1674      N1675   1.433       .  S
N1675      H1679   1.046       .  S
N1675      H1680   1.045       .  S
N1678      H1681   1.044       .  S
N1678      H1682   1.044       .  S
C1683      C1684   1.408       .  A
C1683      C1688   1.394       .  A
C1683      H1690   1.077       .  S
C1684      C1685   1.422       .  A
C1685      C1686   1.381       .  A
C1685      N1692   1.437       .  S
C1686      C1687   1.403       .  A
C1686      H1691   1.084       .  S
C1687      C1688   1.412       .  A
C1688      N1689   1.437       .  S
N1689      H1693   1.046       .  S
N1689      H1694   1.046       .  S
N1692      H1695   1.043       .  S
N1692      H1696   1.040       .  S
C1697      C1698   1.417       .  A
C1697      C1702   1.409       .  A
C1697      H1704   1.077       .  S
C1698      C1699   1.419       .  A
C1699      C1700   1.411       .  A
C1699      N1706   1.432       .  S
C1700      C1701   1.405       .  A
C1700      H1705   1.084       .  S
C1701      C1702   1.402       .  A
C1702      N1703   1.428       .  S
N1703      H1707   1.044       .  S
N1703      H1708   1.044       .  S
N1706      H1709   1.046       .  S
N1706      H1710   1.045       .  S
C1711      C1712   1.404       .  A
C1711      C1716   1.399       .  A
C1711      H1718   1.083       .  S
C1712      C1713   1.415       .  A
C1713      C1714   1.409       .  A
C1713      N1720   1.432       .  S
C1714      C1715   1.408       .  A
C1714      H1719   1.083       .  S
C1715      C1716   1.414       .  A
C1716      N1717   1.433       .  S
N1717      H1721   1.046       .  S
N1717      H1722   1.046       .  S
N1720      H1723   1.046       .  S
N1720      H1724   1.045       .  S
C1725      C1726   1.406       .  A
C1725      C1730   1.412       .  A
C1725      H1732   1.084       .  S
C1726      C1727   1.416       .  A
C1727      C1728   1.412       .  A
C1727      N1734   1.432       .  S
C1728      C1729   1.407       .  A
C1728      H1733   1.084       .  S
C1729      C1730   1.417       .  A
C1730      N1731   1.432       .  S
N1731      H1735   1.045       .  S
N1731      H1736   1.045       .  S
N1734      H1737   1.045       .  S
N1734      H1738   1.045       .  S
C1739      C1740   1.404       .  A
C1739      C1744   1.403       .  A
C1739      H1746   1.084       .  S
C1740      C1741   1.412       .  A
C1741      C1742   1.395       .  A
C1741      N1748   1.433       .  S
C1742      C1743   1.401       .  A
C1742      H1747   1.084       .  S
C1743      C1744   1.411       .  A
C1744      N1745   1.432       .  S
N1745      H1749   1.046       .  S
N1745      H1750   1.046       .  S
N1748      H1751   1.046       .  S
N1748      H1752   1.046       .  S
C1753      C1754   1.401       .  A
C1753      C1758   1.396       .  A
C1753      H1760   1.084       .  S
C1754      C1755   1.414       .  A
C1755      C1756   1.409       .  A
C1755      N1762   1.438       .  S
C1756      C1757   1.405       .  A
C1756      H1761   1.084       .  S
C1757      C1758   1.413       .  A
C1758      N1759   1.439       .  S
N1759      H1763   1.046       .  S
N1759      H1764   1.046       .  S
N1762      H1765   1.046       .  S
N1762      H1766   1.046       .  S
C1767      C1768   1.402       .  A
C1767      C1772   1.400       .  A
C1767      H1774   1.084       .  S
C1768      C1769   1.408       .  A
C1769      C1770   1.399       .  A
C1769      N1776   1.433       .  S
C1770      C1771   1.403       .  A
C1770      H1775   1.084       .  S
C1771      C1772   1.413       .  A
C1772      N1773   1.438       .  S
N1773      H1777   1.046       .  S
N1773      H1778   1.045       .  S
N1776      H1779   1.046       .  S
N1776      H1780   1.046       .  S
C1781      C1782   1.407       .  A
C1781      C1786   1.406       .  A
C1781      H1788   1.083       .  S
C1782      C1783   1.413       .  A
C1783      C1784   1.398       .  A
C1783      N1790   1.433       .  S
C1784      C1785   1.404       .  A
C1784      H1789   1.084       .  S
C1785      C1786   1.409       .  A
C1786      N1787   1.431       .  S
N1787      H1791   1.046       .  S
N1787      H1792   1.045       .  S
N1790      H1793   1.046       .  S
N1790      H1794   1.046       .  S
C1795      C1796   1.401       .  A
C1795      C1800   1.397       .  A
C1795      H1802   1.084       .  S
C1796      C1797   1.411       .  A
C1797      C1798   1.391       .  A
C1797      N1804   1.434       .  S
C1798      C1799   1.399       .  A
C1798      H1803   1.084       .  S
C1799      C1800   1.419       .  A
C1800      N1801   1.433       .  S
N1801      H1805   1.046       .  S
N1801      H1806   1.045       .  S
N1804      H1807   1.046       .  S
N1804      H1808   1.046       .  S
C1809      C1810   1.405       .  A
C1809      C1814   1.401       .  A
C1809      H1816   1.084       .  S
C1810      C1811   1.412       .  A
C1811      C1812   1.403       .  A
C1811      N1818   1.432       .  S
C1812      C1813   1.404       .  A
C1812      H1817   1.084       .  S
C1813      C1814   1.411       .  A
C1814      N1815   1.433       .  S
N1815      H1819   1.046       .  S
N1815      H1820   1.046       .  S
N1818      H1821   1.046       .  S
N1818      H1822   1.046       .  S
C1823      C1824   1.406       .  A
C1823      C1828   1.411       .  A
C1823      H1830   1.083       .  S
C1824      C1825   1.412       .  A
C1825      C1826   1.397       .  A
C1825      N1832   1.433       .  S
C1826      C1827   1.401       .  A
C1826      H1831   1.084       .  S
C1827      C1828   1.415       .  A
C1828      N1829   1.438       .  S
N1829      H1833   1.046       .  S
N1829      H1834   1.046       .  S
N1832      H1835   1.046       .  S
N1832      H1836   1.046       .  S
C1837      C1838   1.402       .  A
C1837      C1842   1.392       .  A
C1837      H1844   1.076       .  S
C1838      C1839   1.410       .  A
C1839      C1840   1.394       .  A
C1839      N1846   1.434       .  S
C1840      C1841   1.411       .  A
C1840      H1845   1.084       .  S
C1841      C1842   1.427       .  A
C1842      N1843   1.427       .  S
N1843      H1847   1.044       .  S
N1843      H1848   1.045       .  S
N1846      H1849   1.046       .  S
N1846      H1850   1.046       .  S
C1851      C1852   1.404       .  A
C1851      C1856   1.400       .  A
C1851      H1858   1.084       .  S
C1852      C1853   1.409       .  A
C1853      C1854   1.394       .  A
C1853      N1860   1.433       .  S
C1854      C1855   1.402       .  A
C1854      H1859   1.084       .  S
C1855      C1856   1.408       .  A
C1856      N1857   1.432       .  S
N1857      H1861   1.046       .  S
N1857      H1862   1.045       .  S
N1860      H1863   1.046       .  S
N1860      H1864   1.046       .  S
C1865      C1866   1.401       .  A
C1865      C1870   1.388       .  A
C1865      H1872   1.084       .  S
C1866      C1867   1.408       .  A
C1867      C1868   1.402       .  A
C1867      N1874   1.432       .  S
C1868      C1869   1.407       .  A
C1868      H1873   1.084       .  S
C1869      C1870   1.417       .  A
C1870      N1871   1.433       .  S
N1871      H1875   1.046       .  S
N1871      H1876   1.045       .  S
N1874      H1877   1.046       .  S
N1874      H1878   1.046       .  S
C1879      C1880   1.400       .  A
C1879      C1884   1.395       .  A
C1879      H1886   1.084       .  S
C1880      C1881   1.409       .  A
C1881      C1882   1.396       .  A
C1881      N1888   1.432       .  S
C1882      C1883   1.401       .  A
C1882      H1887   1.084       .  S
C1883      C1884   1.414       .  A
C1884      N1885   1.439       .  S
N1885      H1889   1.046       .  S
N1885      H1890   1.046       .  S
N1888      H1891   1.045       .  S
N1888      H1892   1.046       .  S
C1893      C1894   1.405       .  A
C1893      C1898   1.404       .  A
C1893      H1900   1.084       .  S
C1894      C1895   1.415       .  A
C1895      C1896   1.396       .  A
C1895      N1902   1.439       .  S
C1896      C1897   1.402       .  A
C1896      H1901   1.084       .  S
C1897      C1898   1.409       .  A
C1898      N1899   1.432       .  S
N1899      H1903   1.045       .  S
N1899      H1904   1.046       .  S
N1902      H1905   1.046       .  S
N1902      H1906   1.046       .  S
C1907      C1908   1.398       .  A
C1907      C1912   1.386       .  A
C1907      H1914   1.085       .  S
C1908      C1909   1.410       .  A
C1909      C1910   1.402       .  A
C1909      N1916   1.438       .  S
C1910      C1911   1.404       .  A
C1910      H1915   1.084       .  S
C1911      C1912   1.414       .  A
C1912      N1913   1.433       .  S
N1913      H1917   1.046       .  S
N1913      H1918   1.044       .  S
N1916      H1919   1.045       .  S
N1916      H1920   1.046       .  S
C1921      C1922   1.407       .  A
C1921      C1926   1.403       .  A
C1921      H1928   1.084       .  S
C1922      C1923   1.420       .  A
C1923      C1924   1.394       .  A
C1923      N1930   1.433       .  S
C1924      C1925   1.404       .  A
C1924      H1929   1.084       .  S
C1925      C1926   1.418       .  A
C1926      N1927   1.432       .  S
N1927      H1931   1.045       .  S
N1927      H1932   1.045       .  S
N1930      H1933   1.046       .  S
N1930      H1934   1.045       .  S
C1935      C1936   1.402       .  A
C1935      C1940   1.399       .  A
C1935      H1942   1.084       .  S
C1936      C1937   1.415       .  A
C1937      C1938   1.403       .  A
C1937      N1944   1.439       .  S
C1938      C1939   1.403       .  A
C1938      H1943   1.083       .  S
C1939      C1940   1.412       .  A
C1940      N1941   1.433       .  S
N1941      H1945   1.046       .  S
N1941      H1946   1.046       .  S
N1944      H1947   1.046       .  S
N1944      H1948   1.046       .  S
C1949      C1950   1.404       .  A
C1949      C1954   1.402       .  A
C1949      H1956   1.083       .  S
C1950      C1951   1.413       .  A
C1951      C1952   1.407       .  A
C1951      N1958   1.432       .  S
C1952      C1953   1.407       .  A
C1952      H1957   1.083       .  S
C1953      C1954   1.419       .  A
C1954      N1955   1.439       .  S
N1955      H1959   1.046       .  S
N1955      H1960   1.046       .  S
N1958      H1961   1.046       .  S
N1958      H1962   1.046       .  S
C1963      C1964   1.402       .  A
C1963      C1968   1.399       .  A
C1963      H1970   1.084       .  S
C1964      C1965   1.409       .  A
C1965      C1966   1.401       .  A
C1965      N1972   1.432       .  S
C1966      C1967   1.404       .  A
C1966      H1971   1.084       .  S
C1967      C1968   1.419       .  A
C1968      N1969   1.433       .  S
N1969      H1973   1.045       .  S
N1969      H1974   1.046       .  S
N1972      H1975   1.046       .  S
N1972      H1976   1.045       .  S
C1977      C1978   1.401       .  A
C1977      C1982   1.396       .  A
C1977      H1984   1.084       .  S
C1978      C1979   1.412       .  A
C1979      C1980   1.406       .  A
C1979      N1986   1.437       .  S
C1980      C1981   1.403       .  A
C1980      H1985   1.084       .  S
C1981      C1982   1.412       .  A
C1982      N1983   1.440       .  S
N1983      H1987   1.046       .  S
N1983      H1988   1.046       .  S
N1986      H1989   1.046       .  S
N1986      H1990   1.046       .  S
C1991      C1992   1.403       .  A
C1991      C1996   1.401       .  A
C1991      H1998   1.084       .  S
C1992      C1993   1.411       .  A
C1993      C1994   1.409       .  A
C1993      N2000   1.431       .  S
C1994      C1995   1.406       .  A
C1994      H1999   1.084       .  S
C1995      C1996   1.413       .  A
C1996      N1997   1.433       .  S
N1997      H2001   1.046       .  S
N1997      H2002   1.046       .  S
N2000      H2003   1.044       .  S
N2000      H2004   1.046       .  S
C2005      C2006   1.404       .  A
C2005      C2010   1.405       .  A
C2005      H2012   1.084       .  S
C2006      C2007   1.407       .  A
C2007      C2008   1.391       .  A
C2007      N2014   1.433       .  S
C2008      C2009   1.401       .  A
C2008      H2013   1.084       .  S
C2009      C2010   1.412       .  A
C2010      N2011   1.438       .  S
N2011      H2015   1.046       .  S
N2011      H2016   1.046       .  S
N2014      H2017   1.046       .  S
N2014      H2018   1.046       .  S
C2019      C2020   1.402       .  A
C2019      C2024   1.395       .  A
C2019      H2026   1.084       .  S
C2020      C2021   1.417       .  A
C2021      C2022   1.393       .  A
C2021      N2028   1.433       .  S
C2022      C2023   1.402       .  A
C2022      H2027   1.084       .  S
C2023      C2024   1.417       .  A
C2024      N2025   1.433       .  S
N2025      H2029   1.045       .  S
N2025      H2030   1.046       .  S
N2028      H2031   1.046       .  S
N2028      H2032   1.044       .  S
C2033      C2034   1.404       .  A
C2033      C2038   1.394       .  A
C2033      H2040   1.084       .  S
C2034      C2035   1.415       .  A
C2035      C2036   1.399       .  A
C2035      N2042   1.438       .  S
C2036      C2037   1.404       .  A
C2036      H2041   1.083       .  S
C2037      C2038   1.411       .  A
C2038      N2039   1.433       .  S
N2039      H2043   1.046       .  S
N2039      H2044   1.046       .  S
N2042      H2045   1.046       .  S
N2042      H2046   1.046       .  S
C2047      C2048   1.403       .  A
C2047      C2052   1.396       .  A
C2047      H2054   1.084       .  S
C2048      C2049   1.412       .  A
C2049      C2050   1.398       .  A
C2049      N2056   1.432       .  S
C2050      C2051   1.403       .  A
C2050      H2055   1.084       .  S
C2051      C2052   1.412       .  A
C2052      N2053   1.433       .  S
N2053      H2057   1.046       .  S
N2053      H2058   1.046       .  S
N2056      H2059   1.046       .  S
N2056      H2060   1.046       .  S
C2061      C2062   1.406       .  A
C2061      C2066   1.399       .  A
C2061      H2068   1.083       .  S
C2062      C2063   1.417       .  A
C2063      C2064   1.411       .  A
C2063      N2070   1.438       .  S
C2064      C2065   1.408       .  A
C2064      H2069   1.083       .  S
C2065      C2066   1.413       .  A
C2066      N2067   1.433       .  S
N2067      H2071   1.046       .  S
N2067      H2072   1.046       .  S
N2070      H2073   1.046       .  S
N2070      H2074   1.046   1_655  S
C2075      C2076   1.400       .  A
C2075      C2080   1.388       .  A
C2075      H2082   1.084       .  S
C2076      C2077   1.408       .  A
C2077      C2078   1.395       .  A
C2077      N2084   1.432       .  S
C2078      C2079   1.404       .  A
C2078      H2083   1.084       .  S
C2079      C2080   1.417       .  A
C2080      N2081   1.433       .  S
N2081      H2085   1.045       .  S
N2081      H2086   1.046       .  S
N2084      H2087   1.044   1_655  S
N2084      H2088   1.046       .  S
C2089      C2090   1.407       .  A
C2089      C2094   1.410       .  A
C2089      H2096   1.084       .  S
C2090      C2091   1.416       .  A
C2091      C2092   1.393       .  A
C2091      N2098   1.433       .  S
C2092      C2093   1.401       .  A
C2092      H2097   1.083       .  S
C2093      C2094   1.416       .  A
C2094      N2095   1.432       .  S
N2095      H2099   1.046   1_655  S
N2095      H2100   1.046   1_655  S
N2098      H2101   1.046       .  S
N2098      H2102   1.046       .  S
C2103      C2104   1.408       .  A
C2103      C2108   1.412       .  A
C2103      H2110   1.077       .  S
C2104      C2105   1.416       .  A
C2105      C2106   1.399       .  A
C2105      N2112   1.434       .  S
C2106      C2107   1.409       .  A
C2106      H2111   1.084       .  S
C2107      C2108   1.422       .  A
C2108      N2109   1.427       .  S
N2109      H2113   1.046       .  S
N2109      H2114   1.046       .  S
N2112      H2115   1.046       .  S
N2112      H2116   1.045       .  S
C2117      C2118   1.402       .  A
C2117      C2122   1.400       .  A
C2117      H2124   1.084       .  S
C2118      C2119   1.414       .  A
C2119      C2120   1.404       .  A
C2119      N2126   1.432       .  S
C2120      C2121   1.402       .  A
C2120      H2125   1.084       .  S
C2121      C2122   1.414       .  A
C2122      N2123   1.433       .  S
N2123      H2127   1.045       .  S
N2123      H2128   1.044       .  S
N2126      H2129   1.045       .  S
N2126      H2130   1.046       .  S
C2131      C2132   1.417       .  A
C2131      C2136   1.406       .  A
C2131      H2138   1.075       .  S
C2132      C2133   1.419       .  A
C2133      C2134   1.411       .  A
C2133      N2140   1.432       .  S
C2134      C2135   1.404       .  A
C2134      H2139   1.084       .  S
C2135      C2136   1.403       .  A
C2136      N2137   1.432       .  S
N2137      H2141   1.045       .  S
N2137      H2142   1.046       .  S
N2140      H2143   1.045       .  S
N2140      H2144   1.046       .  S
C2145      C2146   1.408       .  A
C2145      C2150   1.413       .  A
C2145      H2152   1.084       .  S
C2146      C2147   1.416       .  A
C2147      C2148   1.407       .  A
C2147      N2154   1.433       .  S
C2148      C2149   1.406       .  A
C2148      H2153   1.084       .  S
C2149      C2150   1.414       .  A
C2150      N2151   1.431       .  S
N2151      H2155   1.046       .  S
N2151      H2156   1.045       .  S
N2154      H2157   1.044       .  S
N2154      H2158   1.046       .  S
C2159      C2160   1.419       .  A
C2159      C2164   1.405       .  A
C2159      H2166   1.071       .  S
C2160      C2161   1.433       .  A
C2161      C2162   1.405       .  A
C2161      N2168   1.435       .  S
C2162      C2163   1.399       .  A
C2162      H2167   1.084       .  S
C2163      C2164   1.401       .  A
C2164      N2165   1.438       .  S
N2165      H2169   1.044       .  S
N2165      H2170   1.046       .  S
N2168      H2171   1.042       .  S
N2168      H2172   1.041       .  S
C2173      C2174   1.405       .  A
C2173      C2178   1.416       .  A
C2173      H2180   1.083       .  S
C2174      C2175   1.418       .  A
C2175      C2176   1.409       .  A
C2175      N2182   1.438       .  S
C2176      C2177   1.408       .  A
C2176      H2181   1.082       .  S
C2177      C2178   1.425       .  A
C2178      N2179   1.437       .  S
N2179      H2183   1.045       .  S
N2179      H2184   1.045       .  S
N2182      H2185   1.046       .  S
N2182      H2186   1.046       .  S
C2187      C2188   1.411       .  A
C2187      C2192   1.404       .  A
C2187      H2194   1.078       .  S
C2188      C2189   1.409       .  A
C2189      C2190   1.387       .  A
C2189      N2196   1.434       .  S
C2190      C2191   1.408       .  A
C2190      H2195   1.085       .  S
C2191      C2192   1.413       .  A
C2192      N2193   1.429       .  S
N2193      H2197   1.046       .  S
N2193      H2198   1.046       .  S
N2196      H2199   1.045       .  S
N2196      H2200   1.046       .  S
C2201      C2202   1.413       .  A
C2201      C2206   1.396       .  A
C2201      H2208   1.079       .  S
C2202      C2203   1.414       .  A
C2203      C2204   1.400       .  A
C2203      N2210   1.433       .  S
C2204      C2205   1.404       .  A
C2204      H2209   1.084       .  S
C2205      C2206   1.397       .  A
C2206      N2207   1.428       .  S
N2207      H2211   1.042       .  S
N2207      H2212   1.045       .  S
N2210      H2213   1.046       .  S
N2210      H2214   1.046       .  S
C2215      C2216   1.411       .  A
C2215      C2220   1.404       .  A
C2215      H2222   1.081       .  S
C2216      C2217   1.422       .  A
C2217      C2218   1.401       .  A
C2217      N2224   1.437       .  S
C2218      C2219   1.408       .  A
C2218      H2223   1.083       .  S
C2219      C2220   1.414       .  A
C2220      N2221   1.438       .  S
N2221      H2225   1.046       .  S
N2221      H2226   1.045       .  S
N2224      H2227   1.042       .  S
N2224      H2228   1.045       .  S
C2229      C2230   1.396       .  A
C2229      C2234   1.397       .  A
C2229      H2236   1.085       .  S
C2230      C2231   1.410       .  A
C2231      C2232   1.401       .  A
C2231      N2238   1.437       .  S
C2232      C2233   1.413       .  A
C2232      H2237   1.077       .  S
C2233      C2234   1.417       .  A
C2234      N2235   1.433       .  S
N2235      H2239   1.046       .  S
N2235      H2240   1.046       .  S
N2238      H2241   1.042       .  S
N2238      H2242   1.045       .  S
C2243      C2244   1.409       .  A
C2243      C2248   1.398       .  A
C2243      H2250   1.084       .  S
C2244      C2245   1.421       .  A
C2245      C2246   1.411       .  A
C2245      N2252   1.427       .  S
C2246      C2247   1.407       .  A
C2246      H2251   1.078       .  S
C2247      C2248   1.416       .  A
C2248      N2249   1.435       .  S
N2249      H2253   1.046       .  S
N2249      H2254   1.046       .  S
N2252      H2255   1.046       .  S
N2252      H2256   1.046       .  S
C2257      C2258   1.401       .  A
C2257      C2262   1.398       .  A
C2257      H2264   1.084       .  S
C2258      C2259   1.412       .  A
C2259      C2260   1.410       .  A
C2259      N2266   1.437       .  S
C2260      C2261   1.402       .  A
C2260      H2265   1.084       .  S
C2261      C2262   1.413       .  A
C2262      N2263   1.433       .  S
N2263      H2267   1.045       .  S
N2263      H2268   1.044       .  S
N2266      H2269   1.045       .  S
N2266      H2270   1.046       .  S
C2271      C2272   1.408       .  A
C2271      C2276   1.414       .  A
C2271      H2278   1.084       .  S
C2272      C2273   1.412       .  A
C2273      C2274   1.414       .  A
C2273      N2280   1.437       .  S
C2274      C2275   1.411       .  A
C2274      H2279   1.083       .  S
C2275      C2276   1.419       .  A
C2276      N2277   1.431       .  S
N2277      H2281   1.043       .  S
N2277      H2282   1.045       .  S
N2280      H2283   1.046       .  S
N2280      H2284   1.046       .  S
C2285      C2286   1.408       .  A
C2285      C2290   1.416       .  A
C2285      H2292   1.079       .  S
C2286      C2287   1.427       .  A
C2287      C2288   1.415       .  A
C2287      N2294   1.438       .  S
C2288      C2289   1.404       .  A
C2288      H2293   1.082       .  S
C2289      C2290   1.425       .  A
C2290      N2291   1.438       .  S
N2291      H2295   1.046       .  S
N2291      H2296   1.046       .  S
N2294      H2297   1.045       .  S
N2294      H2298   1.045       .  S
C2299      C2300   1.410       .  A
C2299      C2304   1.401       .  A
C2299      H2306   1.082       .  S
C2300      C2301   1.411       .  A
C2301      C2302   1.401       .  A
C2301      N2308   1.432       .  S
C2302      C2303   1.409       .  A
C2302      H2307   1.083       .  S
C2303      C2304   1.413       .  A
C2304      N2305   1.437       .  S
N2305      H2309   1.046       .  S
N2305      H2310   1.045       .  S
N2308      H2311   1.046       .  S
N2308      H2312   1.046       .  S
C2313      C2314   1.405       .  A
C2313      C2318   1.395       .  A
C2313      H2320   1.083       .  S
C2314      C2315   1.421       .  A
C2315      C2316   1.403       .  A
C2315      N2322   1.430       .  S
C2316      C2317   1.397       .  A
C2316      H2321   1.083       .  S
C2317      C2318   1.419       .  A
C2318      N2319   1.438       .  S
N2319      H2323   1.045       .  S
N2319      H2324   1.044       .  S
N2322      H2325   1.041       .  S
N2322      H2326   1.045       .  S
C2327      C2328   1.405       .  A
C2327      C2332   1.409       .  A
C2327      H2334   1.081       .  S
C2328      C2329   1.425       .  A
C2329      C2330   1.416       .  A
C2329      N2336   1.437       .  S
C2330      C2331   1.407       .  A
C2330      H2335   1.080       .  S
C2331      C2332   1.422       .  A
C2332      N2333   1.433       .  S
N2333      H2337   1.046       .  S
N2333      H2338   1.046       .  S
N2336      H2339   1.046       .  S
N2336      H2340   1.045       .  S
C2341      C2342   1.403       .  A
C2341      C2346   1.412       .  A
C2341      H2348   1.084       .  S
C2342      C2343   1.413       .  A
C2343      C2344   1.402       .  A
C2343      N2350   1.433       .  S
C2344      C2345   1.404       .  A
C2344      H2349   1.084       .  S
C2345      C2346   1.412       .  A
C2346      N2347   1.437       .  S
N2347      H2351   1.046       .  S
N2347      H2352   1.046       .  S
N2350      H2353   1.046       .  S
N2350      H2354   1.044       .  S
C2355      C2356   1.412       .  A
C2355      C2360   1.409       .  A
C2355      H2362   1.081       .  S
C2356      C2357   1.416       .  A
C2357      C2358   1.409       .  A
C2357      N2364   1.438       .  S
C2358      C2359   1.410       .  A
C2358      H2363   1.081       .  S
C2359      C2360   1.417       .  A
C2360      N2361   1.438       .  S
N2361      H2365   1.046       .  S
N2361      H2366   1.045       .  S
N2364      H2367   1.045       .  S
N2364      H2368   1.045       .  S
C2369      C2370   1.411       .  A
C2369      C2374   1.407       .  A
C2369      H2376   1.076       .  S
C2370      C2371   1.427       .  A
C2371      C2372   1.387       .  A
C2371      N2378   1.437       .  S
C2372      C2373   1.405       .  A
C2372      H2377   1.085       .  S
C2373      C2374   1.416       .  A
C2374      N2375   1.428       .  S
N2375      H2379   1.046       .  S
N2375      H2380   1.046       .  S
N2378      H2381   1.040       .  S
N2378      H2382   1.042       .  S
C2383      C2384   1.405       .  A
C2383      C2388   1.389       .  A
C2383      H2390   1.081       .  S
C2384      C2385   1.429       .  A
C2385      C2386   1.404       .  A
C2385      N2392   1.434       .  S
C2386      C2387   1.400       .  A
C2386      H2391   1.084       .  S
C2387      C2388   1.417       .  A
C2388      N2389   1.436       .  S
N2389      H2393   1.041       .  S
N2389      H2394   1.046       .  S
N2392      H2395   1.045       .  S
N2392      H2396   1.037       .  S
C2397      C2398   1.403       .  A
C2397      C2402   1.409       .  A
C2397      H2404   1.083       .  S
C2398      C2399   1.425       .  A
C2399      C2400   1.402       .  A
C2399      N2406   1.434       .  S
C2400      C2401   1.407       .  A
C2400      H2405   1.082       .  S
C2401      C2402   1.416       .  A
C2402      N2403   1.427       .  S
N2403      H2407   1.046       .  S
N2403      H2408   1.040       .  S
N2406      H2409   1.046       .  S
N2406      H2410   1.042       .  S
C2411      C2412   1.404       .  A
C2411      C2416   1.404       .  A
C2411      H2418   1.084       .  S
C2412      C2413   1.413       .  A
C2413      C2414   1.403       .  A
C2413      N2420   1.432       .  S
C2414      C2415   1.402       .  A
C2414      H2419   1.084       .  S
C2415      C2416   1.411       .  A
C2416      N2417   1.432       .  S
N2417      H2421   1.044       .  S
N2417      H2422   1.045       .  S
N2420      H2423   1.045       .  S
N2420      H2424   1.045       .  S
C2425      C2426   1.401       .  A
C2425      C2430   1.407       .  A
C2425      H2432   1.084       .  S
C2426      C2427   1.400       .  A
C2427      C2428   1.406       .  A
C2427      N2434   1.437       .  S
C2428      C2429   1.417       .  A
C2428      H2433   1.077       .  S
C2429      C2430   1.420       .  A
C2430      N2431   1.439       .  S
N2431      H2435   1.046       .  S
N2431      H2436   1.045       .  S
N2434      H2437   1.044       .  S
N2434      H2438   1.045       .  S
C2439      C2440   1.405       .  A
C2439      C2444   1.411       .  A
C2439      H2446   1.084       .  S
C2440      C2441   1.418       .  A
C2441      C2442   1.418       .  A
C2441      N2448   1.429       .  S
C2442      C2443   1.409       .  A
C2442      H2447   1.084       .  S
C2443      C2444   1.415       .  A
C2444      N2445   1.432       .  S
N2445      H2449   1.045       .  S
N2445      H2450   1.046       .  S
N2448      H2451   1.043       .  S
N2448      H2452   1.045       .  S
C2453      C2454   1.406       .  A
C2453      C2458   1.410       .  A
C2453      H2460   1.084       .  S
C2454      C2455   1.413       .  A
C2455      C2456   1.408       .  A
C2455      N2462   1.432       .  S
C2456      C2457   1.406       .  A
C2456      H2461   1.084       .  S
C2457      C2458   1.416       .  A
C2458      N2459   1.432       .  S
N2459      H2463   1.045       .  S
N2459      H2464   1.045       .  S
N2462      H2465   1.046       .  S
N2462      H2466   1.045       .  S
C2467      C2468   1.408       .  A
C2467      C2472   1.406       .  A
C2467      H2474   1.083       .  S
C2468      C2469   1.427       .  A
C2469      C2470   1.409       .  A
C2469      N2476   1.438       .  S
C2470      C2471   1.403       .  A
C2470      H2475   1.082       .  S
C2471      C2472   1.421       .  A
C2472      N2473   1.433       .  S
N2473      H2477   1.041       .  S
N2473      H2478   1.046       .  S
N2476      H2479   1.046       .  S
N2476      H2480   1.046       .  S
C2481      C2482   1.411       .  A
C2481      C2486   1.404       .  A
C2481      H2488   1.076       .  S
C2482      C2483   1.409       .  A
C2483      C2484   1.392       .  A
C2483      N2490   1.434       .  S
C2484      C2485   1.412       .  A
C2484      H2489   1.085       .  S
C2485      C2486   1.422       .  A
C2486      N2487   1.427       .  S
N2487      H2491   1.044       .  S
N2487      H2492   1.045       .  S
N2490      H2493   1.046       .  S
N2490      H2494   1.046       .  S
C2495      C2496   1.397       .  A
C2495      C2500   1.405       .  A
C2495      H2502   1.084       .  S
C2496      C2497   1.406       .  A
C2497      C2498   1.394       .  A
C2497      N2504   1.433       .  S
C2498      C2499   1.414       .  A
C2498      H2503   1.084       .  S
C2499      C2500   1.425       .  A
C2500      N2501   1.427       .  S
N2501      H2505   1.046       .  S
N2501      H2506   1.046       .  S
N2504      H2507   1.046       .  S
N2504      H2508   1.044       .  S
C2509      C2510   1.411       .  A
C2509      C2514   1.410       .  A
C2509      H2516   1.078       .  S
C2510      C2511   1.433       .  A
C2511      C2512   1.411       .  A
C2511      N2518   1.433       .  S
C2512      C2513   1.405       .  A
C2512      H2517   1.082       .  S
C2513      C2514   1.420       .  A
C2514      N2515   1.439       .  S
N2515      H2519   1.045       .  S
N2515      H2520   1.046       .  S
N2518      H2521   1.038       .  S
N2518      H2522   1.044       .  S
C2523      C2524   1.405       .  A
C2523      C2528   1.411       .  A
C2523      H2530   1.084       .  S
C2524      C2525   1.415       .  A
C2525      C2526   1.422       .  A
C2525      N2532   1.431       .  S
C2526      C2527   1.410       .  A
C2526      H2531   1.083       .  S
C2527      C2528   1.417       .  A
C2528      N2529   1.438       .  S
N2529      H2533   1.046       .  S
N2529      H2534   1.046       .  S
N2532      H2535   1.045       .  S
N2532      H2536   1.045       .  S
C2537      C2538   1.402       .  A
C2537      C2542   1.409       .  A
C2537      H2544   1.084       .  S
C2538      C2539   1.410       .  A
C2539      C2540   1.417       .  A
C2539      N2546   1.428       .  S
C2540      C2541   1.406       .  A
C2540      H2545   1.084       .  S
C2541      C2542   1.420       .  A
C2542      N2543   1.438       .  S
N2543      H2547   1.046       .  S
N2543      H2548   1.046       .  S
N2546      H2549   1.045       .  S
N2546      H2550   1.045       .  S
C2551      C2552   1.416       .  A
C2551      C2556   1.409       .  A
C2551      H2558   1.075       .  S
C2552      C2553   1.418       .  A
C2553      C2554   1.405       .  A
C2553      N2560   1.433       .  S
C2554      C2555   1.401       .  A
C2554      H2559   1.084       .  S
C2555      C2556   1.405       .  A
C2556      N2557   1.438       .  S
N2557      H2561   1.045       .  S
N2557      H2562   1.046       .  S
N2560      H2563   1.046       .  S
N2560      H2564   1.045       .  S
C2565      C2566   1.406       .  A
C2565      C2570   1.397       .  A
C2565      H2572   1.080       .  S
C2566      C2567   1.429       .  A
C2567      C2568   1.400       .  A
C2567      N2574   1.434       .  S
C2568      C2569   1.399       .  A
C2568      H2573   1.083       .  S
C2569      C2570   1.413       .  A
C2570      N2571   1.439       .  S
N2571      H2575   1.045       .  S
N2571      H2576   1.046       .  S
N2574      H2577   1.045       .  S
N2574      H2578   1.036       .  S
C2579      C2580   1.405       .  A
C2579      C2584   1.408       .  A
C2579      H2586   1.081       .  S
C2580      C2581   1.426       .  A
C2581      C2582   1.411       .  A
C2581      N2588   1.438       .  S
C2582      C2583   1.405       .  A
C2582      H2587   1.078       .  S
C2583      C2584   1.419       .  A
C2584      N2585   1.432       .  S
N2585      H2589   1.043       .  S
N2585      H2590   1.045       .  S
N2588      H2591   1.046       .  S
N2588      H2592   1.046       .  S
