geometry optimzed in LAMMPS
_audit_creation_date              2020-11-30 
_audit_creation_method            'lammps2cif' 
_symmetry_space_group_name_H-M    'P1' 
_symmetry_Int_Tables_number       1 
_symmetry_cell_setting            triclinic 
loop_ 
_symmetry_equiv_pos_as_xyz 
  x,y,z 
_cell_length_a                    40.07539158 
_cell_length_b                    40.695345834931445 
_cell_length_c                    76.46421294403525 
_cell_angle_alpha                 90.19660589580286 
_cell_angle_beta                  91.02028345780276 
_cell_angle_gamma                 119.00004523396275 
loop_ 
_atom_site_label 
_atom_site_type_symbol 
_atom_site_fract_x 
_atom_site_fract_y 
_atom_site_fract_z 
_atom_site_charge 
C1          C  0.33521457  0.17004477  0.54096866     0.46200
H2          H  0.33663988  0.17117480  0.52652255    -0.02800
C3          C  0.33215205  0.16898096  0.57482832     0.46200
H4          H  0.33062439  0.16841548  0.58929250    -0.02800
C5          C  0.37488678  0.19296517  0.55008244    -0.16500
C6          C  0.31076251  0.18685458  0.54818449    -0.16300
C7          C  0.31824466  0.12962453  0.54846485    -0.16700
C8          C  0.37334627  0.19155204  0.56813124    -0.16600
C9          C  0.30971498  0.18694926  0.56619815    -0.16200
C10         C  0.31589988  0.12926823  0.56653240    -0.16500
C11         C  0.15890079  0.33972211  0.45736485     0.46200
H12         H  0.15431646  0.34171341  0.44345154    -0.02800
C13         C  0.16617206  0.33741982  0.49086732     0.46200
H14         H  0.17183711  0.33791518  0.50494947    -0.02800
C15         C  0.17417585  0.31263820  0.46250941    -0.16500
C16         C  0.18583480  0.37864868  0.46589996    -0.16300
C17         C  0.12069555  0.32431344  0.46655384    -0.16700
C18         C  0.17935901  0.31236597  0.48063377    -0.16600
C19         C  0.18980908  0.37734672  0.48368877    -0.16200
C20         C  0.12387109  0.32459665  0.48470588    -0.16500
O21         O  0.09791600  0.24437940  0.69769053    -0.80200
O22         O  0.18692200  0.38438032  0.65084566    -0.64800
O23         O  0.16282198  0.30918247  0.68518323    -1.11400
C24         C  0.12967720  0.38520362  0.71919714     1.06700
O25         O  0.21782389  0.43082804  0.67010959    -0.78100
O26         O  0.22377572  0.40929577  0.70302208    -0.65600
Ni27       Ni  0.13434415  0.25682820  0.67908580     1.34900
C28         C  0.21787611  0.38298280  0.71348729     0.85500
O29         O  0.19589101  0.32362840  0.65203301    -0.78600
O30         O  0.16797926  0.26317312  0.66021707    -0.88900
C31         C  0.20804434  0.41895213  0.65441048     0.85000
O32         O  0.09901683  0.25956528  0.66299667    -0.67100
O33         O  0.15820422  0.41215054  0.71185860    -0.86400
C34         C  0.09899393  0.28583255  0.65410607     0.85900
C35         C  0.18997486  0.29004615  0.65044647     1.07400
H36         H  0.13117008  0.36607921  0.67810326     0.39200
O37         O  0.15405962  0.36741211  0.68317634    -1.09000
O38         O  0.18601171  0.35328354  0.71424729    -0.65700
Ni39       Ni  0.13987163  0.32964348  0.70033498     1.26300
O40         O  0.12595198  0.31966342  0.65523071    -0.65900
O41         O  0.11696278  0.35096036  0.71484344    -0.78200
C42         C  0.10427209  0.25722800  0.71330573     0.85300
O43         O  0.12612845  0.29135801  0.71678082    -0.65400
Ni44       Ni  0.18694022  0.41828094  0.69075849     1.27400
Ni45       Ni  0.17477787  0.34577518  0.66742416     1.26100
H46         H  0.18666256  0.31312125  0.69036885     0.39800
C47         C  0.48028072  0.00350984  0.79126148     0.46200
H48         H  0.47827183  0.99724594  0.77728596    -0.02800
C49         C  0.48116327  0.01110171  0.82478601     0.46200
H50         H  0.48046852  0.01556593  0.83878717    -0.02800
C51         C  0.50492632  0.48900388  0.80093673    -0.16500
C52         C  0.49569535  0.04517662  0.79711575    -0.16300
C53         C  0.44030203  0.48267168  0.79877868    -0.16700
C54         C  0.50660798  0.49376288  0.81908821    -0.16600
C55         C  0.49823446  0.04909667  0.81522079    -0.16200
C56         C  0.44002578  0.48642056  0.81666883    -0.16500
C57         C  0.14807043  0.33328342  0.90975669     0.46200
H58         H  0.14376218  0.32827945  0.92375322    -0.02800
C59         C  0.15063063  0.34255037  0.87632964     0.46200
H60         H  0.15311870  0.34877654  0.86234325    -0.02800
C61         C  0.18978467  0.35894613  0.90348174    -0.16500
C62         C  0.13188768  0.29574889  0.89924315    -0.16300
C63         C  0.12518718  0.35244490  0.90358626    -0.16700
C64         C  0.19048358  0.36273573  0.88532602    -0.16600
C65         C  0.13454380  0.30025535  0.88124792    -0.16200
C66         C  0.12630636  0.35767395  0.88578850    -0.16500
C67         C  0.35466997  0.17341244  0.15843685     0.46200
H68         H  0.35086136  0.17309024  0.17264613    -0.02800
C69         C  0.36109029  0.17644594  0.12478768     0.46200
H70         H  0.36510385  0.17827942  0.11050902    -0.02800
C71         C  0.37377566  0.15041195  0.15130052    -0.16500
C72         C  0.31544677  0.15694157  0.14877804    -0.16300
C73         C  0.37859741  0.21394169  0.15166868    -0.16700
C74         C  0.37806500  0.15317528  0.13319993    -0.16600
C75         C  0.31879550  0.15744768  0.13070646    -0.16200
C76         C  0.38151697  0.21554051  0.13384360    -0.16500
C77         C  0.02438272  0.50706245  0.20888741     0.46200
H78         H  0.02136798  0.50667738  0.19447845    -0.02800
C79         C  0.02883330  0.50578697  0.24269468     0.46200
H80         H  0.03101022  0.50469992  0.25711303    -0.02800
C81         C  0.06625570  0.02930848  0.21620694    -0.16500
C82         C  0.00264142  0.02486368  0.21794773    -0.16300
C83         C  0.00737574  0.46694652  0.21621416    -0.16700
C84         C  0.06839820  0.02743596  0.23428113    -0.16600
C85         C  0.00616671  0.02551699  0.23601555    -0.16200
C86         C  0.00914979  0.46616347  0.23414542    -0.16500
O87         O  0.29567154  0.07585734  0.36682490    -0.80200
O88         O  0.37860929  0.21868170  0.31768941    -0.64800
O89         O  0.35223068  0.14496734  0.35344566    -1.11400
C90         C  0.30198056  0.21503463  0.38113709     1.06700
O91         O  0.40123850  0.26503399  0.33702581    -0.78100
O92         O  0.39952104  0.24794958  0.37073606    -0.65600
Ni93       Ni  0.32653373  0.09308007  0.34627549     1.34900
C94         C  0.39510775  0.22265928  0.38151632     0.85500
O95         O  0.39544102  0.16340666  0.32311577    -0.78600
O96         O  0.35529959  0.10193325  0.32508207    -0.88900
C97         C  0.39596299  0.25355594  0.32125471     0.85000
O98         O  0.28691190  0.09746049  0.33435521    -0.67100
O99         O  0.32865923  0.24291605  0.37344733    -0.86400
C100        C  0.29121103  0.11918273  0.32173038     0.85900
C101        C  0.38430090  0.12959691  0.31856529     1.07400
H102        H  0.31473919  0.19441862  0.34129935     0.39200
O103        O  0.33727703  0.19887266  0.34798293    -1.09000
O104        O  0.36566290  0.19050683  0.38155353    -0.65700
Ni105      Ni  0.32255461  0.16255288  0.36600927     1.26300
O106        O  0.32185631  0.15035415  0.32010146    -0.65900
O107        O  0.29378750  0.18122119  0.37804300    -0.78200
C108        C  0.29312956  0.09040240  0.38113715     0.85300
O109        O  0.30723005  0.12538626  0.38340114    -0.65400
Ni110      Ni  0.36376276  0.25091896  0.35494153     1.27400
Ni111      Ni  0.36590147  0.18116609  0.33515208     1.26100
H112        H  0.37496302  0.14988996  0.36008618     0.39800
O113        O  0.04560434  0.10003016  0.99886508    -0.80200
O114        O  0.50226675  0.46419277  0.05133529    -0.64800
O115        O  0.03801010  0.03335801  0.01355412    -1.11400
C116        C  0.41991056  0.46041675  0.98626326     1.06700
O117        O  0.45897772  0.41351095  0.03680283    -0.78100
O118        O  0.48786907  0.43138977  0.00441131    -0.65600
Ni119      Ni  0.06316346  0.08576763  0.01966233     1.34900
C120        C  0.00286248  0.45066154  0.99093232     0.85500
O121        O  0.06969241  0.01892004  0.04294570    -0.78600
O122        O  0.08665583  0.07958832  0.04085514    -0.88900
C123        C  0.48012651  0.42907563  0.05020812     0.85000
O124        O  0.02044125  0.08155068  0.03204733    -0.67100
O125        O  0.42341329  0.43393532  0.99328550    -0.86400
C126        C  0.50593196  0.06109511  0.04528326     0.85900
C127        C  0.09103900  0.05302483  0.04723832     1.07400
H128        H  0.45430683  0.48662237  0.02803331     0.39200
O129        O  0.47085566  0.48060262  0.02131341    -1.09000
O130        O  0.00144503  0.48084329  0.98771560    -0.65700
Ni131      Ni  0.48954311  0.01392148  0.00188303     1.26300
O132        O  0.50848780  0.03132815  0.04780159    -0.65900
O133        O  0.44065254  0.49441193  0.99087653    -0.78200
C134        C  0.02802850  0.08402282  0.98468086     0.85300
O135        O  0.00870518  0.04856767  0.98312328    -0.65400
Ni136      Ni  0.44424193  0.42803562  0.01538619     1.27400
Ni137      Ni  0.02005132  0.49941040  0.03268034     1.26100
H138        H  0.05523611  0.02826926  0.00677617     0.39800
C139        C  0.16846653  0.05233636  0.25305946    -0.04700
C140        C  0.16911239  0.07031204  0.26887217     0.09400
C141        C  0.13824834  0.07578678  0.27304765    -0.02100
C142        C  0.10698996  0.06414767  0.26131369    -0.00400
C143        C  0.10459098  0.04399690  0.24562288    -0.04000
C144        C  0.13621635  0.03846622  0.24164472     0.03000
C145        C  0.20184354  0.08272622  0.28160073     0.09900
C146        C  0.13853048  0.09315435  0.28975255     0.35800
C147        C  0.13584213  0.01690951  0.22649589     0.39200
C148        C  0.22821177  0.12118884  0.28376737    -0.04400
C149        C  0.25661693  0.13338654  0.29711585     0.02800
C150        C  0.26005610  0.10681538  0.30798236    -0.04000
C151        C  0.23421877  0.06783536  0.30505676    -0.00200
C152        C  0.20476860  0.05615514  0.29228687    -0.02700
C153        C  0.22565373  0.14825412  0.27227159     0.36500
C154        C  0.23817808  0.03907008  0.31459546     0.40100
C155        C  0.28128151  0.17346606  0.29976211     0.39300
C156        C  0.17690993  0.01659737  0.29025435     0.36200
C157        C  0.20082271  0.04709728  0.24893386     0.36900
C158        C  0.07927769  0.07588619  0.26548307     0.40100
N159        N  0.30068078  0.20552101  0.30172167    -0.38000
N160        N  0.22345263  0.16965234  0.26305312    -0.39500
N161        N  0.24116210  0.01591419  0.32207509    -0.37300
N162        N  0.15490040  0.48503945  0.28858297    -0.39700
N163        N  0.13874257  0.10683761  0.30307585    -0.39500
N164        N  0.05982900  0.08764444  0.27017653    -0.37100
N165        N  0.13783734  0.00051512  0.21454063    -0.38100
N166        N  0.22674986  0.04294441  0.24593725    -0.39800
C167        C  0.43695488  0.37462573  0.25619282    -0.04700
C168        C  0.46070321  0.36813563  0.26772927     0.09400
C169        C  0.50045470  0.39173553  0.26736482    -0.02100
C170        C  0.01630506  0.42254469  0.25581970    -0.00400
C171        C  0.49252970  0.43069487  0.24484183    -0.04000
C172        C  0.45245488  0.40620855  0.24522929     0.03000
C173        C  0.44342806  0.33811903  0.28119025     0.09900
C174        C  0.02494906  0.38460454  0.27907534     0.35800
C175        C  0.42577640  0.41482470  0.23622698     0.39200
C176        C  0.44106103  0.30274816  0.27852514    -0.04400
C177        C  0.42622110  0.27514274  0.29161078     0.02800
C178        C  0.41145230  0.28197585  0.30708280    -0.04000
C179        C  0.41159654  0.31673790  0.30910481    -0.00200
C180        C  0.42853793  0.34495309  0.29650269    -0.02700
C181        C  0.45320983  0.29455423  0.26211549     0.36500
C182        C  0.39302198  0.32333197  0.32381724     0.40100
C183        C  0.42753893  0.24040669  0.28929151     0.39300
C184        C  0.43038648  0.38106720  0.29937531     0.36200
C185        C  0.39604314  0.34927458  0.25612175     0.36900
C186        C  0.05732863  0.44538877  0.25561270     0.40100
N187        N  0.42887038  0.21283314  0.28742376    -0.38000
N188        N  0.96322463  0.28820613  0.24911763    -0.39500
N189        N  0.37811521  0.32869475  0.33545244    -0.37300
N190        N  0.43144855  0.40953909  0.30210962    -0.39700
N191        N  0.04440860  0.37876268  0.28844726    -0.39500
N192        N  0.09028454  0.46200059  0.25612047    -0.37100
N193        N  0.40159639  0.41875576  0.22987343    -0.38100
N194        N  0.36346972  0.32906730  0.25603431    -0.39800
C195        C  0.45611715  0.04449905  0.27427022    -0.04700
C196        C  0.46150199  0.08041951  0.27033148     0.09400
C197        C  0.48436994  0.10006711  0.25621883    -0.02100
C198        C  0.49971253  0.08284139  0.24527741    -0.00400
C199        C  0.49203939  0.04526680  0.24832362    -0.04000
C200        C  0.47138358  0.02708693  0.26348771     0.03000
C201        C  0.44325358  0.09746276  0.28141274     0.09900
C202        C  0.49342714  0.13875801  0.25352336     0.35800
C203        C  0.96500030  0.99039714  0.26827665     0.39200
C204        C  0.46337505  0.12068822  0.29588200    -0.04400
C205        C  0.44458792  0.13272604  0.30763999     0.02800
C206        C  0.40545710  0.12138357  0.30502237    -0.04000
C207        C  0.38581904  0.09949735  0.29007437    -0.00200
C208        C  0.40467217  0.08755748  0.27833475    -0.02700
C209        C  0.50297697  0.13068996  0.29906060     0.36500
C210        C  0.34612278  0.08912490  0.28676552     0.40100
C211        C  0.46493068  0.15475776  0.32302669     0.39300
C212        C  0.38403739  0.06393357  0.26337981     0.36200
C213        C  0.43516385  0.02567765  0.28974998     0.36900
C214        C  0.52561053  0.10534981  0.23182603     0.40100
N215        N  0.48111586  0.17218893  0.33534779    -0.38000
N216        N  0.03435242  0.13810427  0.30151750    -0.39500
N217        N  0.31448450  0.08079489  0.28404029    -0.37300
N218        N  0.36763456  0.54508351  0.25149315    -0.39700
N219        N  0.50100335  0.16980124  0.25166283    -0.39500
N220        N  0.54592083  0.12440753  0.22121141    -0.37100
N221        N  0.95989917  0.96147590  0.27307149    -0.38100
N222        N  0.41867435  0.01094807  0.30216353    -0.39800
C223        C  0.46688198  0.34169301  0.07372783    -0.04700
C224        C  0.46104607  0.34949103  0.09103422     0.09400
C225        C  0.46787799  0.38596730  0.09557281    -0.02100
C226        C  0.47640987  0.41322792  0.08248612    -0.00400
C227        C  0.47856057  0.40412420  0.06480095    -0.04000
C228        C  0.47659908  0.36919706  0.06079218     0.03000
C229        C  0.44243680  0.31783969  0.10364648     0.09900
C230        C  0.46447183  0.39478700  0.11363124     0.35800
C231        C  0.48532672  0.36167723  0.04337620     0.39200
C232        C  0.46205803  0.30004947  0.11081613    -0.04400
C233        C  0.44240303  0.26709350  0.12079650     0.02800
C234        C  0.40292170  0.25177329  0.12395794    -0.04000
C235        C  0.38419727  0.27134175  0.11748228    -0.00200
C236        C  0.40355911  0.30350699  0.10713008    -0.02700
C237        C  0.50239571  0.31528076  0.10751447     0.36500
C238        C  0.34455293  0.25878814  0.12057941     0.40100
C239        C  0.46351936  0.24945158  0.12761612     0.39300
C240        C  0.38281732  0.32100391  0.09927127     0.36200
C241        C  0.46098965  0.30463600  0.06901676     0.36900
C242        C  0.48161277  0.44994915  0.08726063     0.40100
N243        N  0.48262780  0.23737436  0.13267446    -0.38000
N244        N  0.03440482  0.32714854  0.10465923    -0.39500
N245        N  0.31321056  0.25199443  0.12182586    -0.37300
N246        N  0.36628013  0.33482420  0.09297315    -0.39700
N247        N  0.46173554  0.40178930  0.12803907    -0.39500
N248        N  0.48609608  0.47928214  0.09128501    -0.37100
N249        N  0.49274306  0.35576130  0.02957401    -0.38100
N250        N  0.45630834  0.27506860  0.06532926    -0.39800
C251        C  0.15412969  0.09656135  0.08752780    -0.04700
C252        C  0.18389128  0.08836084  0.08449162     0.09400
C253        C  0.18182467  0.06603668  0.06992493    -0.02100
C254        C  0.15056076  0.05295493  0.05805188    -0.00400
C255        C  0.12155946  0.06264357  0.06064124    -0.04000
C256        C  0.12284642  0.08346429  0.07571346     0.03000
C257        C  0.21869212  0.10528370  0.09604289     0.09900
C258        C  0.21268571  0.05782948  0.06686897     0.35800
C259        C  0.09158972  0.09078888  0.07927736     0.39200
C260        C  0.22216193  0.08509790  0.11014262    -0.04400
C261        C  0.25521110  0.10128229  0.12101734     0.02800
C262        C  0.28531257  0.13837671  0.11792847    -0.04000
C263        C  0.28298977  0.15638208  0.10233849    -0.00200
C264        C  0.24914316  0.14066411  0.09205429    -0.02700
C265        C  0.19207713  0.04695152  0.11295199     0.36500
C266        C  0.31546332  0.18919840  0.09555883     0.40100
C267        C  0.25938958  0.07759123  0.13398166     0.39300
C268        C  0.24564613  0.16072160  0.07705653     0.36200
C269        C  0.15633704  0.11945890  0.10254453     0.36900
C270        C  0.14908266  0.03082262  0.04285280     0.40100
N271        N  0.26118136  0.05732901  0.14405358    -0.38000
N272        N  0.16812436  0.01639158  0.11489373    -0.39500
N273        N  0.34060956  0.21410261  0.08882424    -0.37300
N274        N  0.24267029  0.17665887  0.06514878    -0.39700
N275        N  0.23748409  0.05153356  0.06448898    -0.39500
N276        N  0.14797371  0.01308152  0.03077112    -0.37100
N277        N  0.06661838  0.09646195  0.08226802    -0.38100
N278        N  0.15813901  0.13791035  0.11445324    -0.39800
C279        C  0.44094021  0.05829285  0.08229397    -0.04700
C280        C  0.45289179  0.09678366  0.08491691     0.09400
C281        C  0.48180224  0.12356284  0.07445406    -0.02100
C282        C  0.49921923  0.11213456  0.06165820    -0.00400
C283        C  0.48678077  0.07329210  0.05862453    -0.04000
C284        C  0.45673601  0.04648986  0.06886198     0.03000
C285        C  0.43327688  0.10914918  0.09791011     0.09900
C286        C  0.99322806  0.16314049  0.07672667     0.35800
C287        C  0.44013961  0.00663314  0.06501752     0.39200
C288        C  0.45142212  0.12670215  0.11380416    -0.04400
C289        C  0.43378145  0.14045725  0.12549233     0.02800
C290        C  0.39687711  0.13616983  0.12160844    -0.04000
C291        C  0.37834423  0.11651465  0.10576490    -0.00200
C292        C  0.39676368  0.10406086  0.09397756    -0.02700
C293        C  0.48882960  0.13093204  0.11788442     0.36500
C294        C  0.33909340  0.10574098  0.10149254     0.40100
C295        C  0.45463270  0.15886271  0.14133625     0.39300
C296        C  0.37802210  0.08585340  0.07752113     0.36200
C297        C  0.41213980  0.03077164  0.09347579     0.36900
C298        C  0.03022061  0.14092949  0.05183978     0.40100
N299        N  0.47277972  0.17277641  0.15383624    -0.38000
N300        N  0.51871935  0.13413376  0.12075367    -0.39500
N301        N  0.30798961  0.09442915  0.09652896    -0.37300
N302        N  0.36311729  0.07127169  0.06444663    -0.39700
N303        N  0.00231417  0.19461403  0.07865824    -0.39500
N304        N  0.05495133  0.16406327  0.04408935    -0.37100
N305        N  0.42625254  0.47473472  0.06193512    -0.38100
N306        N  0.38928118  0.00894059  0.10247368    -0.39800
C307        C  0.42245468  0.12166112  0.18740737    -0.04700
C308        C  0.42021591  0.08907872  0.17995260     0.09400
C309        C  0.39693626  0.07268417  0.16503501    -0.02100
C310        C  0.37819337  0.09045018  0.15682198    -0.00400
C311        C  0.38471520  0.12638759  0.16276902    -0.04000
C312        C  0.40328865  0.13919932  0.17944806     0.03000
C313        C  0.44003104  0.07046197  0.18881162     0.09900
C314        C  0.39235863  0.03739717  0.15817640     0.35800
C315        C  0.39995813  0.16727754  0.18976281     0.39200
C316        C  0.42248675  0.04578853  0.20263387    -0.04400
C317        C  0.44231910  0.03071131  0.21214410     0.02800
C318        C  0.48016620  0.03958963  0.20761556    -0.04000
C319        C  0.99662526  0.06320243  0.19293090    -0.00200
C320        C  0.47698542  0.07912916  0.18402504    -0.02700
C321        C  0.38373020  0.03615705  0.20708372     0.36500
C322        C  0.03482709  0.07396496  0.18727025     0.40100
C323        C  0.42243955  0.50570132  0.22629613     0.39300
C324        C  0.99552702  0.10561164  0.17010262     0.36200
C325        C  0.44489456  0.13731778  0.20337087     0.36900
C326        C  0.34989531  0.06973183  0.14327150     0.40100
N327        N  0.40481242  0.48687055  0.23762316    -0.38000
N328        N  0.35280343  0.02853667  0.21048036    -0.39500
N329        N  0.06477247  0.08394838  0.18164275    -0.37300
N330        N  0.01150521  0.12709250  0.15931387    -0.39700
N331        N  0.38889376  0.00929170  0.15276684    -0.39500
N332        N  0.32754167  0.05175704  0.13259758    -0.37100
N333        N  0.39702632  0.18841110  0.19892818    -0.38100
N334        N  0.46297842  0.14993074  0.21602704    -0.39800
C335        C  0.16404585  0.10771387  0.20152588    -0.04700
C336        C  0.17072154  0.09102174  0.18685410     0.09400
C337        C  0.14154198  0.05628450  0.18042696    -0.02100
C338        C  0.10659841  0.03702808  0.18922394    -0.00400
C339        C  0.10049141  0.05232582  0.20484957    -0.04000
C340        C  0.12861342  0.08943457  0.20996205     0.03000
C341        C  0.20848241  0.11003145  0.17794537     0.09900
C342        C  0.14819485  0.03975943  0.16495256     0.35800
C343        C  0.12114785  0.11019132  0.22331723     0.39200
C344        C  0.23695248  0.10074030  0.18235041    -0.04400
C345        C  0.27157521  0.11634201  0.17319449     0.02800
C346        C  0.27821782  0.14127397  0.15893293    -0.04000
C347        C  0.24863107  0.15018473  0.15466319    -0.00200
C348        C  0.21462936  0.13520654  0.16433362    -0.02700
C349        C  0.22976772  0.07350813  0.19598681     0.36500
C350        C  0.25059819  0.17300616  0.13992289     0.40100
C351        C  0.29787456  0.10285483  0.17792715     0.39300
C352        C  0.18509286  0.14502153  0.16005942     0.36200
C353        C  0.19421220  0.14345409  0.20821079     0.36900
C354        C  0.07767489  0.00156587  0.18185339     0.40100
N355        N  0.31604661  0.08952429  0.18276622    -0.38000
N356        N  0.22417912  0.05148781  0.20666490    -0.39500
N357        N  0.24784215  0.18928437  0.12813271    -0.37300
N358        N  0.16154488  0.15284409  0.15675086    -0.39700
N359        N  0.15373158  0.02657705  0.15268063    -0.39500
N360        N  0.05524302  0.97401699  0.17504279    -0.37100
N361        N  0.11683246  0.12811151  0.23388655    -0.38100
N362        N  0.21843437  0.17176077  0.21363259    -0.39800
C363        C  0.49223403  0.38068881  0.18953535    -0.04700
C364        C  0.45196018  0.36114747  0.18708381     0.09400
C365        C  0.43180975  0.37965818  0.19279157    -0.02100
C366        C  0.45214239  0.41758784  0.19816151    -0.00400
C367        C  0.48975118  0.43228284  0.20477854    -0.04000
C368        C  0.00940451  0.41231296  0.20089119     0.03000
C369        C  0.43147272  0.32185817  0.17906466     0.09900
C370        C  0.39083338  0.35959310  0.19494047     0.35800
C371        C  0.04628357  0.42280213  0.20874258     0.39200
C372        C  0.44250277  0.29456236  0.18346276    -0.04400
C373        C  0.42864763  0.26129868  0.17327762     0.02800
C374        C  0.39480675  0.24875448  0.16307150    -0.04000
C375        C  0.37835251  0.27237683  0.16233256    -0.00200
C376        C  0.40018258  0.31048450  0.16713922    -0.02700
C377        C  0.46721607  0.29980814  0.19852409     0.36500
C378        C  0.33762335  0.25661338  0.16009226     0.40100
C379        C  0.45118391  0.24248509  0.17285030     0.39300
C380        C  0.39126374  0.33728384  0.15879503     0.36200
C381        C  0.01629469  0.36942588  0.18012633     0.36900
C382        C  0.43449705  0.44095821  0.19586283     0.40100
N383        N  0.47130156  0.22960198  0.17319972    -0.38000
N384        N  0.48697386  0.30403082  0.21052097    -0.39500
N385        N  0.30491924  0.24472848  0.15940836    -0.37300
N386        N  0.38409423  0.35853167  0.15198952    -0.39700
N387        N  0.35818333  0.34361440  0.19688624    -0.39500
N388        N  0.41917144  0.45829991  0.19310766    -0.37100
N389        N  0.07500298  0.42879414  0.21520142    -0.38100
N390        N  0.03545485  0.36059236  0.17251349    -0.39800
C391        C  0.29192628  0.42814972  0.92087719    -0.04700
C392        C  0.29593289  0.40883174  0.93519642     0.09400
C393        C  0.26431772  0.37565299  0.94061537    -0.02100
C394        C  0.22857601  0.36214714  0.93198745    -0.00400
C395        C  0.22525848  0.37793305  0.91573246    -0.04000
C396        C  0.25646475  0.41395980  0.91182660     0.03000
C397        C  0.33106559  0.42643733  0.94664800     0.09900
C398        C  0.26821144  0.35631133  0.95583525     0.35800
C399        C  0.25042680  0.44091207  0.90195352     0.39200
C400        C  0.33467883  0.45225583  0.95992878    -0.04400
C401        C  0.36454115  0.46450213  0.97254684     0.02800
C402        C  0.39094970  0.45089628  0.97196617    -0.04000
C403        C  0.38851898  0.42677388  0.95801571    -0.00200
C404        C  0.35847669  0.41439273  0.94548977    -0.02700
C405        C  0.30662343  0.46497237  0.96101377     0.36500
C406        C  0.41719621  0.41505110  0.95629390     0.40100
C407        C  0.36678570  0.48952981  0.98663688     0.39300
C408        C  0.35496449  0.38833181  0.93166607     0.36200
C409        C  0.32402705  0.46380199  0.91601128     0.36900
C410        C  0.19599856  0.33807713  0.94235326     0.40100
N411        N  0.36861931  0.50948398  0.99788499    -0.38000
N412        N  0.28423390  0.47509676  0.96185437    -0.39500
N413        N  0.43994328  0.40560716  0.95464221    -0.37300
N414        N  0.35196452  0.36740641  0.92066735    -0.39700
N415        N  0.27142401  0.34083985  0.96787761    -0.39500
N416        N  0.17135624  0.31968228  0.95155779    -0.37100
N417        N  0.24801252  0.46478297  0.89488500    -0.38100
N418        N  0.34962411  0.49222245  0.91216346    -0.39800
C419        C  0.11278344  0.21697159  0.93184486    -0.04700
C420        C  0.07304017  0.19396921  0.93006647     0.09400
C421        C  0.05292189  0.20183957  0.91699946    -0.02100
C422        C  0.07228501  0.23346954  0.90616615    -0.00400
C423        C  0.11199902  0.25850999  0.90868873    -0.04000
C424        C  0.13219860  0.24864834  0.92115716     0.03000
C425        C  0.05283493  0.16248682  0.94263277     0.09900
C426        C  0.01201127  0.17768448  0.91499847     0.35800
C427        C  0.17340685  0.26814497  0.92204843     0.39200
C428        C  0.04312441  0.17029711  0.95914925    -0.04400
C429        C  0.03234518  0.14356302  0.97256110     0.02800
C430        C  0.03117533  0.10858014  0.96955156    -0.04000
C431        C  0.03618317  0.09911240  0.95229664    -0.00200
C432        C  0.04745719  0.12622003  0.93896485    -0.02700
C433        C  0.04533349  0.20645474  0.96241613     0.36500
C434        C  0.53119470  0.06209495  0.94821258     0.40100
C435        C  0.02214807  0.15212801  0.98943063     0.39300
C436        C  0.05456579  0.11709591  0.92158895     0.36200
C437        C  0.13377574  0.20797213  0.94490572     0.36900
C438        C  0.05096103  0.23836548  0.89198405     0.40100
N439        N  0.01393626  0.15897948  0.00285976    -0.38000
N440        N  0.04701904  0.23529913  0.96488680    -0.39500
N441        N  0.52651022  0.03245292  0.94468525    -0.37300
N442        N  0.56046212  0.10931800  0.90782157    -0.39700
N443        N  0.97935315  0.15849661  0.91347216    -0.39500
N444        N  0.03238692  0.23938367  0.88049903    -0.37100
N445        N  0.20623616  0.28121904  0.92318607    -0.38100
N446        N  0.15035522  0.20072424  0.95535056    -0.39800
C447        C  0.10680205  0.40034957  0.94311510    -0.04700
C448        C  0.06895451  0.39239701  0.93988377     0.09400
C449        C  0.04851803  0.36917378  0.92545098    -0.02100
C450        C  0.06590325  0.35402843  0.91445703    -0.00400
C451        C  0.10528491  0.36529172  0.91646810    -0.04000
C452        C  0.12540387  0.38855009  0.93116119     0.03000
C453        C  0.05061225  0.40730478  0.95232257     0.09900
C454        C  0.00922088  0.36019214  0.92209059     0.35800
C455        C  0.16594526  0.40334156  0.93395694     0.39200
C456        C  0.06461808  0.44645843  0.95418818    -0.04400
C457        C  0.05073063  0.46074653  0.96739959     0.02800
C458        C  0.02039540  0.43595452  0.97803013    -0.04000
C459        C  0.00582611  0.39654412  0.97579028    -0.00200
C460        C  0.02174534  0.38257044  0.96345175    -0.02700
C461        C  0.09410665  0.47222480  0.94271426     0.36500
C462        C  0.47370085  0.36969318  0.98577409     0.40100
C463        C  0.06931676  0.00106998  0.97056463     0.39300
C464        C  0.50886658  0.34247859  0.96246213     0.36200
C465        C  0.12670278  0.42068473  0.95901016     0.36900
C466        C  0.04195168  0.32462367  0.90213259     0.40100
N467        N  0.08473263  0.03316785  0.97320161    -0.38000
N468        N  0.11778801  0.49280542  0.93364762    -0.39500
N469        N  0.44798842  0.34817529  0.99362594    -0.37300
N470        N  0.49861593  0.31057745  0.96165546    -0.39700
N471        N  0.97779692  0.35277019  0.91945343    -0.39500
N472        N  0.02099900  0.30066577  0.89288476    -0.37100
N473        N  0.19822712  0.41813735  0.93737549    -0.38100
N474        N  0.14238265  0.43680893  0.97168848    -0.39800
C475        C  0.06541445  0.38369520  0.85488129    -0.04700
C476        C  0.07795639  0.42135418  0.85957437     0.09400
C477        C  0.10577111  0.43820529  0.87299954    -0.02100
C478        C  0.12148499  0.41776208  0.88147639    -0.00400
C479        C  0.10947567  0.37971231  0.87668752    -0.04000
C480        C  0.08069201  0.36291943  0.86340461     0.03000
C481        C  0.06222721  0.44356397  0.85020565     0.09900
C482        C  0.11871297  0.47711681  0.87788359     0.35800
C483        C  0.06385078  0.32350634  0.85903452     0.39200
C484        C  0.03338713  0.44888393  0.85767859    -0.04400
C485        C  0.02012495  0.47149333  0.84927792     0.02800
C486        C  0.03100736  0.48400009  0.83180113    -0.04000
C487        C  0.06508435  0.48464394  0.82629857    -0.00200
C488        C  0.07917205  0.46290743  0.83485711    -0.02700
C489        C  0.01754314  0.43127503  0.87420955     0.36500
C490        C  0.08993210  0.51250870  0.81414585     0.40100
C491        C  0.50166384  0.48679574  0.86022625     0.39300
C492        C  0.11178177  0.46097582  0.82809946     0.36200
C493        C  0.03588249  0.36594536  0.84142141     0.36900
C494        C  0.15149954  0.43742203  0.89445619     0.40100
N495        N  0.48769565  0.49868612  0.86965388    -0.38000
N496        N  0.00473016  0.41701029  0.88732093    -0.39500
N497        N  0.11200964  0.53475382  0.80503688    -0.37300
N498        N  0.13773654  0.45910325  0.82287759    -0.39700
N499        N  0.12884133  0.00810602  0.88180031    -0.39500
N500        N  0.17524194  0.45506289  0.90465290    -0.37100
N501        N  0.04753012  0.29224023  0.85477842    -0.38100
N502        N  0.51197126  0.35140980  0.83084260    -0.39800
C503        C  0.10136463  0.19949153  0.86519231    -0.04700
C504        C  0.07835666  0.19679496  0.85062622     0.09400
C505        C  0.08272617  0.23027503  0.84320547    -0.02100
C506        C  0.10659224  0.26555790  0.85143308    -0.00400
C507        C  0.12325662  0.26735229  0.86823799    -0.04000
C508        C  0.12552141  0.23474856  0.87311958     0.03000
C509        C  0.05655172  0.15960737  0.84117373     0.09900
C510        C  0.06390115  0.22876378  0.82668638     0.35800
C511        C  0.15770049  0.23764880  0.88311751     0.39200
C512        C  0.02019690  0.13232817  0.84666258    -0.04400
C513        C  0.00175604  0.09589215  0.83888389     0.02800
C514        C  0.01935297  0.08647656  0.82519461    -0.04000
C515        C  0.05702336  0.11351551  0.82071971    -0.00200
C516        C  0.07492849  0.14990385  0.82828539    -0.02700
C517        C  0.00166349  0.14197072  0.86029610     0.36500
C518        C  0.07952630  0.10389857  0.80946482     0.40100
C519        C  0.46373828  0.06897121  0.84448630     0.39300
C520        C  0.11332155  0.17729547  0.82332923     0.36200
C521        C  0.10261106  0.16618219  0.87108722     0.36900
C522        C  0.11806494  0.29883889  0.84103826     0.40100
N523        N  0.43358047  0.04795056  0.84922710    -0.38000
N524        N  0.98671244  0.14960352  0.87113176    -0.39500
N525        N  0.10050694  0.09911924  0.80109819    -0.37300
N526        N  0.14392581  0.19925986  0.81952654    -0.39700
N527        N  0.54861954  0.22848625  0.81363536    -0.39500
N528        N  0.12692866  0.32450774  0.83206807    -0.37100
N529        N  0.18265818  0.23582418  0.89000335    -0.38100
N530        N  0.10396014  0.13968428  0.87550706    -0.39800
C531        C  0.36518992  0.43669871  0.85219106    -0.04700
C532        C  0.33229310  0.43679456  0.84510717     0.09400
C533        C  0.33620403  0.45529626  0.82901560    -0.02100
C534        C  0.37263989  0.47664077  0.82175213    -0.00400
C535        C  0.40348917  0.47078341  0.82703278    -0.04000
C536        C  0.39799112  0.44835334  0.84194889     0.03000
C537        C  0.29421658  0.41680815  0.85430298     0.09900
C538        C  0.30308384  0.45204857  0.81948623     0.35800
C539        C  0.42156801  0.43120367  0.84533818     0.39200
C540        C  0.27129186  0.43405587  0.85699530    -0.04400
C541        C  0.23470245  0.41335503  0.86425940     0.02800
C542        C  0.22572919  0.38082692  0.87415662    -0.04000
C543        C  0.24966723  0.36456935  0.87230477    -0.00200
C544        C  0.28041208  0.37988400  0.86062949    -0.02700
C545        C  0.28558306  0.47352633  0.85330939     0.36500
C546        C  0.24414699  0.33281005  0.88255874     0.40100
C547        C  0.20730602  0.42639107  0.86143206     0.39300
C548        C  0.29690518  0.35701079  0.85477932     0.36200
C549        C  0.36565505  0.42454141  0.86997132     0.36900
C550        C  0.37794904  0.50657874  0.81012064     0.40100
N551        N  0.18659336  0.43778943  0.85808062    -0.38000
N552        N  0.29670349  0.00497719  0.85034915    -0.39500
N553        N  0.24276262  0.30856281  0.89084779    -0.37300
N554        N  0.30984983  0.33868364  0.84999023    -0.39700
N555        N  0.27688741  0.44989351  0.81184723    -0.39500
N556        N  0.37971018  0.53054251  0.80143577    -0.37100
N557        N  0.43748503  0.41445250  0.84819976    -0.38100
N558        N  0.36606051  0.41500835  0.88417909    -0.39800
C559        C  0.27143071  0.38947969  0.75612806    -0.04700
C560        C  0.30917818  0.40421288  0.75031573     0.09400
C561        C  0.31597806  0.40693102  0.73214395    -0.00600
C562        C  0.28604398  0.39916160  0.72001032    -0.00400
C563        C  0.24878744  0.38734793  0.72592160    -0.04000
C564        C  0.24123736  0.38049785  0.74397285     0.03000
C565        C  0.34222473  0.42332376  0.76303974     0.09900
C566        C  0.35438862  0.41983076  0.72603781     0.35800
C567        C  0.20269652  0.36597590  0.75025865     0.39200
C568        C  0.35160750  0.40321093  0.77534336    -0.04400
C569        C  0.38225322  0.42254259  0.78752098     0.02800
C570        C  0.40568277  0.46209606  0.78672517    -0.04000
C571        C  0.39672662  0.48166884  0.77366987    -0.00200
C572        C  0.36422154  0.46265350  0.76267814    -0.02700
C573        C  0.33011721  0.36251404  0.77522619     0.36500
C574        C  0.41854146  0.02170381  0.77142218     0.40100
C575        C  0.38940251  0.40111609  0.80064961     0.39300
C576        C  0.35298812  0.48389827  0.75092373     0.36200
C577        C  0.26375221  0.38503180  0.77467885     0.36900
C578        C  0.29365559  0.40340189  0.70144556     0.40100
N579        N  0.39337821  0.38267077  0.81104405    -0.38000
N580        N  0.31298875  0.33002524  0.77508657    -0.39500
N581        N  0.43149830  0.05315370  0.76806759    -0.37300
N582        N  0.34416792  0.50079647  0.74156726    -0.39700
N583        N  0.38508402  0.93045126  0.72120675    -0.39500
N584        N  0.29974548  0.40684803  0.68663649    -0.37100
N585        N  0.17196544  0.35420544  0.75528225    -0.38100
N586        N  0.25732515  0.38090078  0.78944170    -0.39800
C587        C  0.01248746  0.14090135  0.77959097    -0.04700
C588        C  0.03458915  0.14444016  0.76497950     0.09400
C589        C  0.03683310  0.11313496  0.75878553    -0.02100
C590        C  0.01765869  0.07877998  0.76740757    -0.00400
C591        C  0.00442572  0.07763243  0.78470836    -0.04000
C592        C  0.99752547  0.10777726  0.78952238     0.03000
C593        C  0.05147244  0.17901863  0.75436714     0.09900
C594        C  0.05685541  0.11559211  0.74274247     0.35800
C595        C  0.96921466  0.10264371  0.80230514     0.39200
C596        C  0.09140563  0.20201339  0.75457931    -0.04400
C597        C  0.10872091  0.22812573  0.74121657     0.02800
C598        C  0.08587460  0.23207603  0.72799825    -0.04000
C599        C  0.04581975  0.21235819  0.72906420    -0.00200
C600        C  0.02855172  0.18482906  0.74188040    -0.02700
C601        C  0.11465693  0.19701617  0.76794515     0.36500
C602        C  0.02252054  0.22157240  0.71754736     0.40100
C603        C  0.15005433  0.24964199  0.74064078     0.39300
C604        C  0.48727384  0.16107107  0.74160588     0.36200
C605        C  0.00250963  0.16997125  0.78342271     0.36900
C606        C  0.50511149  0.04556659  0.75639313     0.40100
N607        N  0.18299591  0.26677969  0.74016453    -0.38000
N608        N  0.13317625  0.19290890  0.77856996    -0.39500
N609        N  0.00373969  0.22947507  0.70876810    -0.37300
N610        N  0.45447987  0.14206028  0.74143291    -0.39700
N611        N  0.07305330  0.11773731  0.73004949    -0.39500
N612        N  0.49515505  0.02020331  0.74685287    -0.37100
N613        N  0.94642336  0.10031593  0.81204115    -0.38100
N614        N  0.99341777  0.19251943  0.78600255    -0.39800
C615        C  0.03186612  0.41537228  0.78361403    -0.04700
C616        C  0.05545165  0.43454027  0.76954145     0.09400
C617        C  0.06233296  0.47097507  0.76574180    -0.02100
C618        C  0.04778378  0.48912701  0.77645545    -0.00400
C619        C  0.02295358  0.47001278  0.79040936    -0.04000
C620        C  0.01474168  0.43245300  0.79363994     0.03000
C621        C  0.07358583  0.41710918  0.75846508     0.09900
C622        C  0.08525418  0.49024814  0.75074414     0.35800
C623        C  0.98898431  0.41104175  0.80729149     0.39200
C624        C  0.05188237  0.39043545  0.74532026    -0.04400
C625        C  0.06992286  0.37839574  0.73311049     0.02800
C626        C  0.11020888  0.39439154  0.73337959    -0.04000
C627        C  0.13180460  0.42039456  0.74686440    -0.00200
C628        C  0.11349141  0.43114359  0.75949638    -0.02700
C629        C  0.01121406  0.37723226  0.74367148     0.36500
C630        C  0.17299928  0.43640844  0.74775222     0.40100
C631        C  0.04697311  0.35096401  0.71970772     0.39300
C632        C  0.13598735  0.45812500  0.77313309     0.36200
C633        C  0.02545328  0.37803217  0.78771333     0.36900
C634        C  0.06317972  0.02884633  0.77384047     0.40100
N635        N  0.02862126  0.32892073  0.70908339    -0.38000
N636        N  0.47896370  0.36737903  0.74226261    -0.39500
N637        N  0.20587204  0.44939014  0.74844045    -0.37300
N638        N  0.15405533  0.97976806  0.78389361    -0.39700
N639        N  0.10352210  0.50553136  0.73882644    -0.39500
N640        N  0.07909328  0.06039249  0.77047242    -0.37100
N641        N  0.96896736  0.39317783  0.81824258    -0.38100
N642        N  0.02066622  0.34825176  0.79079188    -0.39800
C643        C  0.22019482  0.20979177  0.40822070    -0.04700
C644        C  0.23999125  0.24082225  0.41971529     0.09400
C645        C  0.28018491  0.26118452  0.41949454    -0.02100
C646        C  0.30019771  0.25333397  0.40666637    -0.00400
C647        C  0.28043747  0.22283541  0.39476233    -0.04000
C648        C  0.24039352  0.20007451  0.39616148     0.03000
C649        C  0.21855752  0.25607965  0.42971288     0.09900
C650        C  0.30137051  0.29056221  0.43238191     0.35800
C651        C  0.21948951  0.16767569  0.38469558     0.39200
C652        C  0.19750361  0.23802008  0.44454856    -0.04400
C653        C  0.17708516  0.25299341  0.45342966     0.02800
C654        C  0.18159901  0.28886425  0.44902171    -0.04000
C655        C  0.19637337  0.30228449  0.43205692    -0.00200
C656        C  0.21606385  0.28691105  0.42296869    -0.02700
C657        C  0.19716978  0.20425194  0.45078714     0.36500
C658        C  0.18853223  0.32842967  0.42243498     0.40100
C659        C  0.14889666  0.22944641  0.46584703     0.39300
C660        C  0.23330056  0.30242473  0.40628335     0.36200
C661        C  0.17882576  0.18888024  0.40829632     0.36900
C662        C  0.34130179  0.27711515  0.40580777     0.40100
N663        N  0.12626899  0.20887822  0.47530207    -0.38000
N664        N  0.19702567  0.17738550  0.45580100    -0.39500
N665        N  0.18249798  0.34858140  0.41395069    -0.37300
N666        N  0.24698835  0.31468525  0.39300144    -0.39700
N667        N  0.31985426  0.31381486  0.44249941    -0.39500
N668        N  0.37398320  0.29635606  0.40508592    -0.37100
N669        N  0.20269843  0.14161060  0.37568001    -0.38100
N670        N  0.14582790  0.17233244  0.40841175    -0.39800
C671        C  0.49225903  0.25043921  0.40216718    -0.04700
C672        C  0.98531810  0.25285762  0.42008637     0.09400
C673        C  0.44785734  0.24195093  0.42540057    -0.02100
C674        C  0.41796592  0.23051605  0.41282182    -0.00400
C675        C  0.42563390  0.23112817  0.39481728    -0.04000
C676        C  0.46276897  0.24062370  0.38954521     0.03000
C677        C  0.01833847  0.27091983  0.43287609     0.09900
C678        C  0.44028582  0.24387775  0.44374364     0.35800
C679        C  0.47069892  0.24052570  0.37110271     0.39200
C680        C  0.04438560  0.30941325  0.43136998    -0.04400
C681        C  0.07800239  0.32632502  0.44179898     0.02800
C682        C  0.08425301  0.30604177  0.45542801    -0.04000
C683        C  0.05687485  0.26755114  0.45734271    -0.00200
C684        C  0.02465149  0.24998330  0.44588181    -0.02700
C685        C  0.03641377  0.33181740  0.41892213     0.36500
C686        C  0.06188118  0.24511723  0.47065063     0.40100
C687        C  0.10544410  0.36484026  0.43805612     0.39300
C688        C  0.49829986  0.21003386  0.44724525     0.36200
C689        C  0.03024595  0.25956476  0.39670361     0.36900
C690        C  0.37960605  0.21953072  0.41841839     0.40100
N691        N  0.12576911  0.39520937  0.43376463    -0.38000
N692        N  0.02992158  0.34955641  0.40903362    -0.39500
N693        N  0.06417082  0.22611486  0.48125752    -0.37300
N694        N  0.47716606  0.17822908  0.44830549    -0.39700
N695        N  0.43408143  0.24513810  0.45838019    -0.39500
N696        N  0.34900856  0.21043956  0.42299643    -0.37100
N697        N  0.47701705  0.24067786  0.35638404    -0.38100
N698        N  0.06057856  0.26681457  0.39241355    -0.39800
C699        C  0.24247025  0.45457531  0.43238334    -0.04700
C700        C  0.22683816  0.47866961  0.43415911     0.09400
C701        C  0.19983804  0.47184257  0.44705548    -0.02100
C702        C  0.18802219  0.44049299  0.45808148    -0.00400
C703        C  0.20201340  0.41467598  0.45575922    -0.04000
C704        C  0.23027576  0.42288295  0.44308562     0.03000
C705        C  0.23915869  0.51097926  0.42207025     0.09900
C706        C  0.18297570  0.99623682  0.44837050     0.35800
C707        C  0.24851655  0.40018930  0.44090582     0.39200
C708        C  0.22030619  0.00579107  0.40571173    -0.04400
C709        C  0.23692161  0.03294228  0.39262903     0.02800
C710        C  0.27282737  0.06509009  0.39576093    -0.04000
C711        C  0.28996016  0.07175437  0.41268462    -0.00200
C712        C  0.27300154  0.04472415  0.42581357    -0.02700
C713        C  0.18456869  0.97175474  0.40215366     0.36500
C714        C  0.32622839  0.10510866  0.41635092     0.40100
C715        C  0.21698527  0.02785223  0.37596055     0.39300
C716        C  0.29115165  0.55065766  0.44301704     0.36200
C717        C  0.27097975  0.46229522  0.41919091     0.36900
C718        C  0.15968060  0.43432037  0.47095805     0.40100
N719        N  0.20106711  0.02396434  0.36268996    -0.38000
N720        N  0.15612508  0.44458635  0.39925908    -0.39500
N721        N  0.35522557  0.13158903  0.41934770    -0.37300
N722        N  0.30549037  0.55526854  0.45674294    -0.39700
N723        N  0.16924342  0.01546820  0.44930674    -0.39500
N724        N  0.13730482  0.43154477  0.48101944    -0.37100
N725        N  0.26540002  0.38468909  0.43772643    -0.38100
N726        N  0.29363144  0.46850801  0.40867553    -0.39800
C727        C  0.28226756  0.25855125  0.58517170    -0.04700
C728        C  0.25834664  0.23804364  0.59884208     0.09400
C729        C  0.25012789  0.20066925  0.60146765    -0.02100
C730        C  0.26521073  0.18360983  0.59032820    -0.00400
C731        C  0.29075427  0.20440759  0.57693201    -0.04000
C732        C  0.29985509  0.24263257  0.57484882     0.03000
C733        C  0.24202458  0.25567060  0.61079625     0.09900
C734        C  0.22615834  0.17976165  0.61586867     0.35800
C735        C  0.33017877  0.26765268  0.56366800     0.39200
C736        C  0.20283167  0.24476240  0.60953618    -0.04400
C737        C  0.18618199  0.25722096  0.62219195     0.02800
C738        C  0.20867058  0.28089853  0.63614049    -0.04000
C739        C  0.24826649  0.29356070  0.63687645    -0.00200
C740        C  0.26493297  0.28093669  0.62423940    -0.02700
C741        C  0.17943241  0.21976014  0.59546299     0.36500
C742        C  0.27147224  0.31803715  0.65112848     0.40100
C743        C  0.14572025  0.24535586  0.62095003     0.39300
C744        C  0.30538934  0.29288686  0.62543333     0.36200
C745        C  0.28921175  0.29645793  0.58189775     0.36900
C746        C  0.25333248  0.14431204  0.59285124     0.40100
N747        N  0.11344633  0.23582531  0.61991699    -0.38000
N748        N  0.16075506  0.19959001  0.58430299    -0.39500
N749        N  0.28998643  0.33745280  0.66253293    -0.37300
N750        N  0.33771466  0.30262005  0.62639373    -0.39700
N751        N  0.20705976  0.16325530  0.62736461    -0.39500
N752        N  0.24213106  0.11284640  0.59565472    -0.37100
N753        N  0.35417286  0.28979522  0.55524611    -0.38100
N754        N  0.29462249  0.32659654  0.57920073    -0.39800
C755        C  0.04058346  0.28489066  0.61348616    -0.04700
C756        C  0.50479370  0.25350958  0.61682011     0.09400
C757        C  0.99949127  0.23365426  0.63240631    -0.02100
C758        C  0.02952361  0.24507980  0.64485891    -0.00400
C759        C  0.06612972  0.27595601  0.64152825    -0.04000
C760        C  0.07140630  0.29552872  0.62553821     0.03000
C761        C  0.47273613  0.24019370  0.60358510     0.09900
C762        C  0.46293193  0.20060362  0.63557474     0.35800
C763        C  0.10892567  0.32491955  0.62071792     0.39200
C764        C  0.47099987  0.21707831  0.58948742    -0.04400
C765        C  0.43885462  0.20112250  0.57800696     0.02800
C766        C  0.40789536  0.20847385  0.58041053    -0.04000
C767        C  0.40985758  0.23135008  0.59493946    -0.00200
C768        C  0.44228955  0.24744621  0.60621611    -0.02700
C769        C  0.00163557  0.20802574  0.58739394     0.36500
C770        C  0.37914971  0.23921697  0.59865644     0.40100
C771        C  0.43662422  0.17426578  0.56491981     0.39300
C772        C  0.44419604  0.27115872  0.62087040     0.36200
C773        C  0.04556462  0.30598012  0.59757756     0.36900
C774        C  0.02221918  0.22424048  0.66097568     0.40100
N775        N  0.43614070  0.15308951  0.55465076    -0.38000
N776        N  0.02610569  0.20087138  0.58594211    -0.39500
N777        N  0.35588068  0.24657239  0.60271921    -0.37300
N778        N  0.44567113  0.28995997  0.63257333    -0.39700
N779        N  0.43389319  0.17426595  0.63805994    -0.39500
N780        N  0.01609628  0.20694104  0.67363031    -0.37100
N781        N  0.13879697  0.34808765  0.61664510    -0.38100
N782        N  0.54923649  0.32292595  0.58502056    -0.39800
C783        C  0.25081747  0.46662279  0.61129265    -0.04700
C784        C  0.24826888  0.99986860  0.61287242     0.09400
C785        C  0.23215441  0.00620530  0.62788885    -0.02100
C786        C  0.21890934  0.47966207  0.64135134    -0.00400
C787        C  0.22195727  0.44652164  0.63999274    -0.04000
C788        C  0.23781005  0.44000096  0.62483565     0.03000
C789        C  0.26644022  0.03054884  0.59982998     0.09900
C790        C  0.23028491  0.04079281  0.62971172     0.35800
C791        C  0.24272936  0.40702473  0.62355526     0.39200
C792        C  0.24591426  0.03198311  0.58502044    -0.04400
C793        C  0.26168776  0.06381119  0.57411873     0.02800
C794        C  0.29891922  0.09436130  0.57771472    -0.04000
C795        C  0.31945207  0.09183603  0.59256548    -0.00200
C796        C  0.30327216  0.06020509  0.60342897    -0.02700
C797        C  0.20786423  0.00108369  0.58146057     0.36500
C798        C  0.35778074  0.12076538  0.59700570     0.40100
C799        C  0.23781482  0.06587427  0.56021482     0.39300
C800        C  0.32433404  0.05829336  0.61872887     0.36200
C801        C  0.26794214  0.46046344  0.59595866     0.36900
C802        C  0.20168803  0.48642619  0.65652524     0.40100
N803        N  0.21787906  0.06632553  0.54920367    -0.38000
N804        N  0.17754581  0.97625853  0.57875267    -0.39500
N805        N  0.38832573  0.14178945  0.60186433    -0.37300
N806        N  0.34089793  0.05667661  0.63095245    -0.39700
N807        N  0.22904503  0.06847488  0.63125163    -0.39500
N808        N  0.18805903  0.49188656  0.66863617    -0.37100
N809        N  0.24691721  0.38087482  0.62253578    -0.38100
N810        N  0.28162572  0.45553538  0.58372913    -0.39800
C811        C  0.29404812  0.25368114  0.51896711    -0.04700
C812        C  0.25376524  0.23657510  0.51772948     0.09400
C813        C  0.23226690  0.20081797  0.52536418    -0.02100
C814        C  0.25046624  0.18609317  0.53635618    -0.00400
C815        C  0.29071908  0.20205095  0.53653318    -0.04000
C816        C  0.31172630  0.23380173  0.52600765     0.03000
C817        C  0.23448963  0.25578659  0.50822977     0.09900
C818        C  0.19169436  0.17844853  0.52151579     0.35800
C819        C  0.35157522  0.24728655  0.52247026     0.39200
C820        C  0.24592977  0.27072195  0.49139079    -0.04400
C821        C  0.23249412  0.29404930  0.48405678     0.02800
C822        C  0.19869017  0.29287280  0.49017759    -0.04000
C823        C  0.18327406  0.27199502  0.50557755    -0.00200
C824        C  0.20448184  0.25940940  0.51578884    -0.02700
C825        C  0.27035939  0.26112567  0.48124530     0.36500
C826        C  0.14305897  0.25485331  0.50890887     0.40100
C827        C  0.25466286  0.31923322  0.47056392     0.39300
C828        C  0.19468073  0.24983034  0.53391904     0.36200
C829        C  0.31770774  0.29243380  0.51380671     0.36900
C830        C  0.22727360  0.15452076  0.54730338     0.40100
N831        N  0.27429538  0.33876927  0.45996862    -0.38000
N832        N  0.28953019  0.25303926  0.47318177    -0.39500
N833        N  0.11090354  0.23757996  0.51183134    -0.37300
N834        N  0.18695191  0.24233869  0.54840564    -0.39700
N835        N  0.15937573  0.16048813  0.51836598    -0.39500
N836        N  0.20773664  0.13012988  0.55625671    -0.37100
N837        N  0.38305787  0.25931599  0.51855734    -0.38100
N838        N  0.33665928  0.32334999  0.50976775    -0.39800
C839        C  0.26655210  0.05160466  0.51336474    -0.04700
C840        C  0.27476958  0.02350299  0.51932380     0.09400
C841        C  0.30098798  0.03185996  0.53334310    -0.02100
C842        C  0.31789288  0.06753067  0.54173302    -0.00400
C843        C  0.30650417  0.09462335  0.53715073    -0.04000
C844        C  0.28216019  0.08685532  0.52215155     0.03000
C845        C  0.25420074  0.48440346  0.51140224     0.09900
C846        C  0.30977167  0.50306873  0.53944905     0.35800
C847        C  0.27166586  0.11411567  0.51576732     0.39200
C848        C  0.27282954  0.47133479  0.50013231    -0.04400
C849        C  0.25268109  0.43499875  0.49241840     0.02800
C850        C  0.21307710  0.41193608  0.49507908    -0.04000
C851        C  0.19557486  0.42395428  0.50769253    -0.00200
C852        C  0.21596831  0.45998192  0.51563533    -0.02700
C853        C  0.31286777  0.99548963  0.49644288     0.36500
C854        C  0.15619217  0.40073819  0.51238472     0.40100
C855        C  0.27377799  0.42061156  0.48289596     0.39300
C856        C  0.19726740  0.47225962  0.52810456     0.36200
C857        C  0.24088117  0.04364925  0.49839504     0.36900
C858        C  0.34799288  0.07610876  0.55462146     0.40100
N859        N  0.29236161  0.41023548  0.47591161    -0.38000
N860        N  0.34485247  0.01457554  0.49360002    -0.39500
N861        N  0.12497030  0.38491975  0.51692871    -0.37300
N862        N  0.18201126  0.48181375  0.53795724    -0.39700
N863        N  0.31655972  0.47995488  0.54422698    -0.39500
N864        N  0.37176169  0.08127165  0.56482071    -0.37100
N865        N  0.26293893  0.13511127  0.50993447    -0.38100
N866        N  0.22027478  0.03722274  0.48651052    -0.39800
C867        C  0.02292986  0.29983010  0.49942930    -0.04700
C868        C  0.01852568  0.27635668  0.51358075     0.09400
C869        C  0.05073357  0.27602671  0.52087310    -0.02100
C870        C  0.08684495  0.29757380  0.51343069    -0.00400
C871        C  0.08994397  0.31418742  0.49672409    -0.04000
C872        C  0.05863488  0.31963312  0.49139215     0.03000
C873        C  0.48101342  0.25581121  0.52226827     0.09900
C874        C  0.04678898  0.25412806  0.53639983     0.35800
C875        C  0.06350938  0.34909617  0.47947328     0.39200
C876        C  0.45443925  0.21928638  0.51669060    -0.04400
C877        C  0.41984002  0.19885004  0.52555184     0.02800
C878        C  0.41098947  0.21534812  0.53994634    -0.04000
C879        C  0.43710750  0.25342281  0.54455997    -0.00200
C880        C  0.47222437  0.27297571  0.53606909    -0.02700
C881        C  0.46308707  0.20266478  0.50182036     0.36500
C882        C  0.42786329  0.27401238  0.55729776     0.40100
C883        C  0.39481508  0.16034879  0.52000918     0.39300
C884        C  0.49947426  0.31120816  0.54138887     0.36200
C885        C  0.49079981  0.30441632  0.49350248     0.36900
C886        C  0.11962385  0.30800956  0.52492114     0.40100
N887        N  0.37611109  0.12986704  0.51490038    -0.38000
N888        N  0.46996375  0.18953874  0.48991524    -0.39500
N889        N  0.42259891  0.29207300  0.56743500    -0.37300
N890        N  0.02109091  0.34165208  0.54548035    -0.39700
N891        N  0.04350909  0.23640623  0.54869034    -0.39500
N892        N  0.14469978  0.31608014  0.53481981    -0.37100
N893        N  0.06482216  0.37213655  0.47024029    -0.38100
N894        N  0.46515637  0.30811701  0.48891865    -0.39800
C895        C  0.33520594  0.66998394  0.54094142     0.46200
H896        H  0.33662113  0.67109935  0.52649499    -0.02800
C897        C  0.33215028  0.66894867  0.57480151     0.46200
H898        H  0.33062835  0.66839280  0.58926582    -0.02800
C899        C  0.37487840  0.69290913  0.55005230    -0.16500
C900        C  0.31076307  0.68680540  0.54815324    -0.16300
C901        C  0.31823496  0.62957118  0.54844518    -0.16700
C902        C  0.37334112  0.69150247  0.56810007    -0.16600
C903        C  0.30971726  0.68691931  0.56616723    -0.16200
C904        C  0.31589517  0.62923084  0.56651255    -0.16500
C905        C  0.15896779  0.83976652  0.45737352     0.46200
H906        H  0.15438421  0.84176094  0.44346195    -0.02800
C907        C  0.16623671  0.83747246  0.49087592     0.46200
H908        H  0.17189743  0.83796930  0.50495880    -0.02800
C909        C  0.17423765  0.81268272  0.46251921    -0.16500
C910        C  0.18589801  0.87869471  0.46590585    -0.16300
C911        C  0.12076290  0.82435251  0.46655833    -0.16700
C912        C  0.17942507  0.81241505  0.48064355    -0.16600
C913        C  0.18987328  0.87740105  0.48369551    -0.16200
C914        C  0.12393521  0.82464541  0.48471043    -0.16500
O915        O  0.09786145  0.74433904  0.69764968    -0.80200
O916        O  0.18698206  0.88438047  0.65083822    -0.64800
O917        O  0.16279158  0.80913901  0.68516233    -1.11400
C918        C  0.12960595  0.88515962  0.71916776     1.06700
O919        O  0.21785282  0.93080937  0.67011438    -0.78100
O920        O  0.22372416  0.90926247  0.70303499    -0.65600
Ni921      Ni  0.13429342  0.75679102  0.67904846     1.34900
C922        C  0.21781912  0.88293129  0.71349018     0.85500
O923        O  0.19590828  0.82360050  0.65201941    -0.78600
O924        O  0.16791821  0.76312671  0.66017577    -0.88900
C925        C  0.20809632  0.91894980  0.65441170     0.85000
O926        O  0.09898763  0.75957590  0.66296569    -0.67100
O927        O  0.15813074  0.91211214  0.71183065    -0.86400
C928        C  0.09900331  0.78585792  0.65407328     0.85900
C929        C  0.18994404  0.79000379  0.65041501     1.07400
H930        H  0.13117600  0.86605785  0.67807698     0.39200
O931        O  0.15405786  0.86738678  0.68315724    -1.09000
O932        O  0.18595826  0.85322321  0.71423819    -0.65700
Ni933      Ni  0.13983277  0.82960328  0.70031128     1.26300
O934        O  0.12598583  0.81967606  0.65520014    -0.65900
O935        O  0.11690751  0.85091696  0.71481606    -0.78200
C936        C  0.10420715  0.75717257  0.71326684     0.85300
O937        O  0.12605563  0.79130071  0.71675033    -0.65400
Ni938      Ni  0.18691840  0.91825319  0.69074740     1.27400
Ni939      Ni  0.17479291  0.84575336  0.66740955     1.26100
H940        H  0.18661933  0.81305889  0.69035545     0.39800
C941        C  0.48025585  0.50358966  0.79130119     0.46200
H942        H  0.47822167  0.49732644  0.77732583    -0.02800
C943        C  0.48117085  0.51114506  0.82482724     0.46200
H944        H  0.48047582  0.51558853  0.83882912    -0.02800
C945        C  0.50495065  0.98893994  0.80091109    -0.16500
C946        C  0.49569234  0.54525393  0.79716382    -0.16300
C947        C  0.44031857  0.98258869  0.79873327    -0.16700
C948        C  0.50661597  0.99372415  0.81906010    -0.16600
C949        C  0.49823682  0.54914821  0.81527136    -0.16200
C950        C  0.44001737  0.98635550  0.81662220    -0.16500
C951        C  0.14805061  0.83332095  0.90976506     0.46200
H952        H  0.14374765  0.82833476  0.92376201    -0.02800
C953        C  0.15057894  0.84254673  0.87633477     0.46200
H954        H  0.15304233  0.84873722  0.86234283    -0.02800
C955        C  0.18975832  0.85897920  0.90347964    -0.16500
C956        C  0.13185798  0.79577278  0.89926304    -0.16300
C957        C  0.12516349  0.85247357  0.90359594    -0.16700
C958        C  0.19044798  0.86274848  0.88532084    -0.16600
C959        C  0.13449859  0.80025812  0.88126766    -0.16200
C960        C  0.12626358  0.85768334  0.88579747    -0.16500
C961        C  0.35467512  0.67339352  0.15842762     0.46200
H962        H  0.35088718  0.67310137  0.17263788    -0.02800
C963        C  0.36104562  0.67634523  0.12477603     0.46200
H964        H  0.36504622  0.67814006  0.11049712    -0.02800
C965        C  0.37381302  0.65041434  0.15130354    -0.16500
C966        C  0.31543338  0.65684915  0.14878027    -0.16300
C967        C  0.37854829  0.71391375  0.15163416    -0.16700
C968        C  0.37808475  0.65314137  0.13320221    -0.16600
C969        C  0.31875387  0.65731141  0.13070668    -0.16200
C970        C  0.38143566  0.71546995  0.13380677    -0.16500
C971        C  0.02437486  0.00707127  0.20885928     0.46200
H972        H  0.02134782  0.00668021  0.19445087    -0.02800
C973        C  0.02883848  0.00581722  0.24266683     0.46200
H974        H  0.03100979  0.00473562  0.25708603    -0.02800
C975        C  0.06626529  0.52925598  0.21623903    -0.16500
C976        C  0.00267853  0.52488889  0.21797767    -0.16300
C977        C  0.00741474  0.96696258  0.21619104    -0.16700
C978        C  0.06840060  0.52737190  0.23431247    -0.16600
C979        C  0.00620294  0.52553456  0.23604674    -0.16200
C980        C  0.00920284  0.96619220  0.23412287    -0.16500
O981        O  0.29574743  0.57585953  0.36685105    -0.80200
O982        O  0.37867004  0.71868418  0.31771082    -0.64800
O983        O  0.35227697  0.64497592  0.35347245    -1.11400
C984        C  0.30194989  0.71500082  0.38113608     1.06700
O985        O  0.40123583  0.76505348  0.33703831    -0.78100
O986        O  0.39951794  0.74795453  0.37074877    -0.65600
Ni987      Ni  0.32658603  0.59309326  0.34629656     1.34900
C988        C  0.39510696  0.72267434  0.38153531     0.85500
O989        O  0.39552193  0.66341562  0.32315412    -0.78600
O990        O  0.35533341  0.60195014  0.32509744    -0.88900
C991        C  0.39598308  0.75356239  0.32126980     0.85000
O992        O  0.28696093  0.59749612  0.33439043    -0.67100
O993        O  0.32863789  0.74288385  0.37345258    -0.86400
C994        C  0.29126959  0.61919474  0.32175366     0.85900
C995        C  0.38436568  0.62960528  0.31859629     1.07400
H996        H  0.31476530  0.69439604  0.34130353     0.39200
O997        O  0.33729879  0.69886112  0.34799384    -1.09000
O998        O  0.36566126  0.69052066  0.38157619    -0.65700
Ni999      Ni  0.32256892  0.66254386  0.36602361     1.26300
O1000       O  0.32192728  0.65035131  0.32011575    -0.65900
O1001       O  0.29375920  0.68118794  0.37804261    -0.78200
C1002       C  0.29317578  0.59039843  0.38115907     0.85300
O1003       O  0.30724149  0.62538010  0.38341925    -0.65400
Ni1004     Ni  0.36375293  0.75090809  0.35495169     1.27400
Ni1005     Ni  0.36595582  0.68117107  0.33517630     1.26100
H1006       H  0.37500230  0.64990050  0.36011963     0.39800
O1007       O  0.04561130  0.59996544  0.99888261    -0.80200
O1008       O  0.50229511  0.96427190  0.05133214    -0.64800
O1009       O  0.03801500  0.53328097  0.01355827    -1.11400
C1010       C  0.41984437  0.96046858  0.98628265     1.06700
O1011       O  0.45899111  0.91359212  0.03680182    -0.78100
O1012       O  0.48785017  0.93146599  0.00440215    -0.65600
Ni1013     Ni  0.06316442  0.58568533  0.01967578     1.34900
C1014       C  0.00282822  0.95073526  0.99092641     0.85500
O1015       O  0.06963018  0.51879884  0.04295705    -0.78600
O1016       O  0.08663914  0.57948075  0.04086840    -0.88900
C1017       C  0.48014692  0.92915389  0.05020563     0.85000
O1018       O  0.02044338  0.58147231  0.03205857    -0.67100
O1019       O  0.42337232  0.93399299  0.99329499    -0.86400
C1020       C  0.50594136  0.56102965  0.04528856     0.85900
C1021       C  0.09098672  0.55289921  0.04725511     1.07400
H1022       H  0.45429886  0.98668559  0.02804225     0.39200
O1023       O  0.47084357  0.98067025  0.02131663    -1.09000
O1024       O  0.00138535  0.98090747  0.98771787    -0.65700
Ni1025     Ni  0.48959084  0.51385859  0.00188218     1.26300
O1026       O  0.50847893  0.53125221  0.04780655    -0.65900
O1027       O  0.44058554  0.99446444  0.99089465    -0.78200
C1028       C  0.02808759  0.58397669  0.98468629     0.85300
O1029       O  0.00880286  0.54852169  0.98311051    -0.65400
Ni1030     Ni  0.44423050  0.92810446  0.01538950     1.27400
Ni1031     Ni  0.02009165  0.99951057  0.03268816     1.26100
H1032       H  0.05525798  0.52819701  0.00678959     0.39800
C1033       C  0.16846242  0.55223647  0.25309973    -0.04700
C1034       C  0.16912002  0.57022957  0.26890906     0.09400
C1035       C  0.13826196  0.57571968  0.27307956    -0.02100
C1036       C  0.10700776  0.56408876  0.26134251    -0.00400
C1037       C  0.10459312  0.54391462  0.24565759    -0.04000
C1038       C  0.13620723  0.53835927  0.24168639     0.03000
C1039       C  0.20187029  0.58267030  0.28163193     0.09900
C1040       C  0.13854853  0.59310709  0.28977917     0.35800
C1041       C  0.13583206  0.51679898  0.22653901     0.39200
C1042       C  0.22823157  0.62113876  0.28378870    -0.04400
C1043       C  0.25667151  0.63335939  0.29712308     0.02800
C1044       C  0.26011579  0.60680859  0.30800286    -0.04000
C1045       C  0.23429158  0.56782319  0.30508502    -0.00200
C1046       C  0.20484938  0.55611484  0.29230870    -0.02700
C1047       C  0.22565365  0.64818346  0.27228594     0.36500
C1048       C  0.23826176  0.53908058  0.31463906     0.40100
C1049       C  0.28138727  0.67344144  0.29973161     0.39300
C1050       C  0.17708442  0.51653628  0.29024444     0.36200
C1051       C  0.20082058  0.54700085  0.24897405     0.36900
C1052       C  0.07933145  0.57588401  0.26549554     0.40100
N1053       N  0.30083404  0.70549854  0.30165589    -0.38000
N1054       N  0.22343890  0.66956435  0.26306053    -0.39500
N1055       N  0.24125558  0.51594731  0.32213462    -0.37300
N1056       N  0.15463403  0.98512126  0.28862599    -0.39700
N1057       N  0.13875483  0.60680624  0.30309709    -0.39500
N1058       N  0.05992212  0.58770124  0.27017304    -0.37100
N1059       N  0.13783719  0.50040931  0.21458410    -0.38100
N1060       N  0.22675392  0.54285523  0.24598179    -0.39800
C1061       C  0.43687463  0.87452380  0.25614907    -0.04700
C1062       C  0.46061889  0.86807901  0.26770867     0.09400
C1063       C  0.50036527  0.89170763  0.26735877    -0.02100
C1064       C  0.01647673  0.92264049  0.25579588    -0.00400
C1065       C  0.49243760  0.93063934  0.24482175    -0.04000
C1066       C  0.45236773  0.90610972  0.24518631     0.03000
C1067       C  0.44334831  0.83807188  0.28117423     0.09900
C1068       C  0.02525114  0.88472740  0.27902519     0.35800
C1069       C  0.42568174  0.91467474  0.23615465     0.39200
C1070       C  0.44104956  0.80272539  0.27852952    -0.04400
C1071       C  0.42623362  0.77513784  0.29162385     0.02800
C1072       C  0.41145092  0.78197190  0.30709134    -0.04000
C1073       C  0.41155451  0.81671891  0.30909939    -0.00200
C1074       C  0.42844058  0.84490710  0.29648033    -0.02700
C1075       C  0.45326655  0.79454611  0.26213503     0.36500
C1076       C  0.39300956  0.82333228  0.32381841     0.40100
C1077       C  0.42759463  0.74042060  0.28931917     0.39300
C1078       C  0.43022489  0.88099942  0.29933084     0.36200
C1079       C  0.39597602  0.84910866  0.25604525     0.36900
C1080       C  0.05749433  0.94550438  0.25556043     0.40100
N1081       N  0.42895670  0.71286011  0.28746352    -0.38000
N1082       N  0.96344069  0.78838118  0.24915343    -0.39500
N1083       N  0.37813399  0.82871853  0.33545971    -0.37300
N1084       N  0.43123649  0.90945486  0.30204619    -0.39700
N1085       N  0.04476832  0.87888124  0.28835712    -0.39500
N1086       N  0.09044977  0.96212308  0.25605424    -0.37100
N1087       N  0.40150561  0.91857250  0.22977220    -0.38100
N1088       N  0.36341395  0.82884310  0.25592894    -0.39800
C1089       C  0.45616573  0.54447488  0.27428997    -0.04700
C1090       C  0.46156322  0.58040596  0.27036470     0.09400
C1091       C  0.48443077  0.60006826  0.25625440    -0.02100
C1092       C  0.49976988  0.58285379  0.24530417    -0.00400
C1093       C  0.49212770  0.54528913  0.24834995    -0.04000
C1094       C  0.47149416  0.52710386  0.26351889     0.03000
C1095       C  0.44332244  0.59744372  0.28145473     0.09900
C1096       C  0.49346954  0.63875458  0.25356210     0.35800
C1097       C  0.96508021  0.49042865  0.26831915     0.39200
C1098       C  0.46342272  0.62059894  0.29594659    -0.04400
C1099       C  0.44463364  0.63263128  0.30770712     0.02800
C1100       C  0.40552934  0.62137680  0.30506193    -0.04000
C1101       C  0.38591248  0.59954609  0.29009686    -0.00200
C1102       C  0.40476464  0.58760255  0.27835835    -0.02700
C1103       C  0.50300531  0.63054418  0.29914028     0.36500
C1104       C  0.34623313  0.58921909  0.28677286     0.40100
C1105       C  0.46493387  0.65454808  0.32312713     0.39300
C1106       C  0.38415339  0.56404174  0.26338308     0.36200
C1107       C  0.43509331  0.52557728  0.28973205     0.36900
C1108       C  0.52564464  0.60536892  0.23184704     0.40100
N1109       N  0.48107853  0.67187915  0.33547732    -0.38000
N1110       N  0.03435572  0.63798076  0.30161813    -0.39500
N1111       N  0.31460629  0.58091908  0.28403609    -0.37300
N1112       N  0.36749322  0.04492399  0.25150759    -0.39700
N1113       N  0.50102807  0.66979278  0.25170105    -0.39500
N1114       N  0.54593410  0.62442953  0.22122719    -0.37100
N1115       N  0.95999734  0.46150810  0.27310614    -0.38100
N1116       N  0.41848659  0.51077101  0.30210877    -0.39800
C1117       C  0.46684523  0.84171697  0.07368584    -0.04700
C1118       C  0.46092762  0.84945107  0.09098994     0.09400
C1119       C  0.46775921  0.88591869  0.09554833    -0.02100
C1120       C  0.47636125  0.91323158  0.08247949    -0.00400
C1121       C  0.47857341  0.90418421  0.06479257    -0.04000
C1122       C  0.47662865  0.86927102  0.06076985     0.03000
C1123       C  0.44230035  0.81776134  0.10358475     0.09900
C1124       C  0.46431503  0.89468549  0.11360995     0.35800
C1125       C  0.48545609  0.86182634  0.04336036     0.39200
C1126       C  0.46194169  0.80000677  0.11077106    -0.04400
C1127       C  0.44229919  0.76704647  0.12075096     0.02800
C1128       C  0.40280804  0.75168558  0.12389984    -0.04000
C1129       C  0.38405514  0.77121263  0.11740285    -0.00200
C1130       C  0.40340758  0.80338246  0.10704949    -0.02700
C1131       C  0.50229771  0.81529746  0.10749780     0.36500
C1132       C  0.34439730  0.75861965  0.12048520     0.40100
C1133       C  0.46344000  0.74944431  0.12758731     0.39300
C1134       C  0.38265072  0.82085266  0.09917989     0.36200
C1135       C  0.46099074  0.80468309  0.06895632     0.36900
C1136       C  0.48159692  0.94995504  0.08727345     0.40100
N1137       N  0.48256009  0.73739252  0.13266049    -0.38000
N1138       N  0.03442592  0.82714492  0.10463033    -0.39500
N1139       N  0.31304037  0.75178663  0.12171865    -0.37300
N1140       N  0.36610170  0.83465324  0.09287418    -0.39700
N1141       N  0.46155734  0.90164413  0.12802202    -0.39500
N1142       N  0.48611178  0.97929128  0.09131388    -0.37100
N1143       N  0.49295927  0.85597912  0.02956373    -0.38100
N1144       N  0.45634420  0.77513647  0.06525095    -0.39800
C1145       C  0.15402440  0.59632867  0.08757064    -0.04700
C1146       C  0.18378816  0.58813515  0.08452705     0.09400
C1147       C  0.18173103  0.56584054  0.06994992    -0.02100
C1148       C  0.15047620  0.55278400  0.05807366    -0.00400
C1149       C  0.12148791  0.56248914  0.06066384    -0.04000
C1150       C  0.12276694  0.58328672  0.07574360     0.03000
C1151       C  0.21860124  0.60507150  0.09607006     0.09900
C1152       C  0.21259556  0.55764356  0.06688504     0.35800
C1153       C  0.09153760  0.59065810  0.07929848     0.39200
C1154       C  0.22207760  0.58492032  0.11018262    -0.04400
C1155       C  0.25514429  0.60112112  0.12104728     0.02800
C1156       C  0.28525275  0.63820361  0.11793734    -0.04000
C1157       C  0.28291615  0.65616609  0.10233417    -0.00200
C1158       C  0.24905839  0.64042907  0.09205809    -0.02700
C1159       C  0.19197894  0.54679051  0.11301334     0.36500
C1160       C  0.31538344  0.68895427  0.09553154     0.40100
C1161       C  0.25932631  0.57745398  0.13402367     0.39300
C1162       C  0.24555600  0.66044095  0.07704248     0.36200
C1163       C  0.15620148  0.61915701  0.10261069     0.36900
C1164       C  0.14899568  0.53066523  0.04286858     0.40100
N1165       N  0.26111662  0.55720621  0.14410475    -0.38000
N1166       N  0.16800790  0.51624397  0.11496758    -0.39500
N1167       N  0.34052196  0.71383288  0.08877951    -0.37300
N1168       N  0.24257530  0.67633820  0.06511935    -0.39700
N1169       N  0.23739756  0.55135772  0.06449607    -0.39500
N1170       N  0.14787741  0.51293277  0.03078172    -0.37100
N1171       N  0.06659352  0.59637724  0.08228231    -0.38100
N1172       N  0.15797494  0.63754370  0.11454142    -0.39800
C1173       C  0.44102244  0.55825481  0.08232738    -0.04700
C1174       C  0.45297480  0.59674675  0.08495061     0.09400
C1175       C  0.48184949  0.62351929  0.07447000    -0.02100
C1176       C  0.49922533  0.61208401  0.06165545    -0.00400
C1177       C  0.48679894  0.57324030  0.05863010    -0.04000
C1178       C  0.45677639  0.54644555  0.06887916     0.03000
C1179       C  0.43334965  0.60911199  0.09794067     0.09900
C1180       C  0.99347106  0.66307353  0.07683673     0.35800
C1181       C  0.44013206  0.50659085  0.06501799     0.39200
C1182       C  0.45150210  0.62672023  0.11382531    -0.04400
C1183       C  0.43384262  0.64047136  0.12550573     0.02800
C1184       C  0.39691906  0.63613736  0.12162203    -0.04000
C1185       C  0.37837867  0.61642196  0.10579202    -0.00200
C1186       C  0.39680937  0.60396213  0.09401358    -0.02700
C1187       C  0.48892920  0.63100115  0.11790890     0.36500
C1188       C  0.33910539  0.60558101  0.10153270     0.40100
C1189       C  0.45468882  0.65890366  0.14134619     0.39300
C1190       C  0.37804599  0.58567426  0.07757372     0.36200
C1191       C  0.41225111  0.53073530  0.09352043     0.36900
C1192       C  0.03038987  0.64083683  0.05192174     0.40100
N1193       N  0.47283757  0.67283085  0.15384391    -0.38000
N1194       N  0.51883383  0.63424783  0.12078839    -0.39500
N1195       N  0.30797906  0.59421167  0.09659032    -0.37300
N1196       N  0.36312545  0.57102218  0.06451314    -0.39700
N1197       N  0.00266158  0.69456053  0.07881281    -0.39500
N1198       N  0.05517866  0.66396490  0.04419616    -0.37100
N1199       N  0.42630212  0.97477312  0.06195205    -0.38100
N1200       N  0.38941357  0.50890231  0.10252537    -0.39800
C1201       C  0.42247993  0.62168374  0.18742882    -0.04700
C1202       C  0.42027354  0.58911738  0.17997069     0.09400
C1203       C  0.39702772  0.57273311  0.16504308    -0.02100
C1204       C  0.37825595  0.59047420  0.15683533    -0.00400
C1205       C  0.38476323  0.62640775  0.16277923    -0.04000
C1206       C  0.40332285  0.63922332  0.17946074     0.03000
C1207       C  0.44008995  0.57050610  0.18883328     0.09900
C1208       C  0.39252456  0.53748948  0.15816392     0.35800
C1209       C  0.39998317  0.66730493  0.18976849     0.39200
C1210       C  0.42253779  0.54581993  0.20265026    -0.04400
C1211       C  0.44237786  0.53076179  0.21216952     0.02800
C1212       C  0.48021909  0.53962196  0.20763610    -0.04000
C1213       C  0.99668580  0.56323915  0.19295813    -0.00200
C1214       C  0.47705064  0.57918672  0.18405339    -0.02700
C1215       C  0.38376424  0.53615488  0.20708544     0.36500
C1216       C  0.03487009  0.57394807  0.18728898     0.40100
C1217       C  0.42236369  0.00559167  0.22624994     0.39300
C1218       C  0.99564019  0.60568920  0.17014040     0.36200
C1219       C  0.44488298  0.63732498  0.20340288     0.36900
C1220       C  0.34992446  0.56972334  0.14330212     0.40100
N1221       N  0.40472679  0.98669872  0.23755872    -0.38000
N1222       N  0.35282255  0.52850136  0.21047000    -0.39500
N1223       N  0.06480132  0.58387763  0.18165584    -0.37300
N1224       N  0.01165438  0.62718407  0.15936220    -0.39700
N1225       N  0.38912690  0.50942468  0.15273394    -0.39500
N1226       N  0.32753626  0.55171820  0.13264626    -0.37100
N1227       N  0.39704688  0.68844550  0.19892714    -0.38100
N1228       N  0.46293725  0.64992231  0.21606799    -0.39800
C1229       C  0.16410553  0.60760552  0.20158834    -0.04700
C1230       C  0.17076726  0.59093087  0.18690604     0.09400
C1231       C  0.14157032  0.55621168  0.18046891    -0.02100
C1232       C  0.10662269  0.53695840  0.18926394    -0.00400
C1233       C  0.10051438  0.55225899  0.20488751    -0.04000
C1234       C  0.12865299  0.58935332  0.21000816     0.03000
C1235       C  0.20852241  0.60995038  0.17799097     0.09900
C1236       C  0.14820914  0.53969752  0.16498772     0.35800
C1237       C  0.12117830  0.61012886  0.22334996     0.39200
C1238       C  0.23700810  0.60067655  0.18238905    -0.04400
C1239       C  0.27161655  0.61627694  0.17322041     0.02800
C1240       C  0.27822257  0.64118101  0.15895002    -0.04000
C1241       C  0.24862356  0.65007817  0.15469009    -0.00200
C1242       C  0.21464800  0.63512081  0.16437930    -0.02700
C1243       C  0.22985764  0.57347386  0.19603591     0.36500
C1244       C  0.25054481  0.67284942  0.13993672     0.40100
C1245       C  0.29793476  0.60281049  0.17794821     0.39300
C1246       C  0.18512296  0.64496563  0.16012958     0.36200
C1247       C  0.19430881  0.64328990  0.20830551     0.36900
C1248       C  0.07769610  0.50149497  0.18189530     0.40100
N1249       N  0.31611715  0.58948967  0.18278527    -0.38000
N1250       N  0.22429136  0.55147957  0.20672453    -0.39500
N1251       N  0.24775171  0.68908006  0.12813550    -0.37300
N1252       N  0.16158819  0.65281902  0.15684301    -0.39700
N1253       N  0.15373015  0.52651947  0.15271017    -0.39500
N1254       N  0.05526465  0.47394113  0.17508816    -0.37100
N1255       N  0.11684973  0.62806563  0.23390566    -0.38100
N1256       N  0.21856356  0.67154473  0.21375713    -0.39800
C1257       C  0.49221337  0.88067883  0.18951756    -0.04700
C1258       C  0.45194191  0.86114979  0.18704439     0.09400
C1259       C  0.43179414  0.87967162  0.19274110    -0.02100
C1260       C  0.45213049  0.91759974  0.19811051    -0.00400
C1261       C  0.48971301  0.93226780  0.20475552    -0.04000
C1262       C  0.00947287  0.91236131  0.20084756     0.03000
C1263       C  0.43145285  0.82186393  0.17901746     0.09900
C1264       C  0.39082025  0.85961503  0.19489569     0.35800
C1265       C  0.04636394  0.92285962  0.20868708     0.39200
C1266       C  0.44247256  0.79456056  0.18341498    -0.04400
C1267       C  0.42861012  0.76129485  0.17323116     0.02800
C1268       C  0.39477609  0.74875526  0.16302075    -0.04000
C1269       C  0.37833575  0.77239047  0.16227308    -0.00200
C1270       C  0.40016538  0.81049669  0.16708872    -0.02700
C1271       C  0.46717751  0.79979280  0.19847842     0.36500
C1272       C  0.33761247  0.75663978  0.16000853     0.40100
C1273       C  0.45113771  0.74247343  0.17281135     0.39300
C1274       C  0.39123013  0.83729892  0.15875897     0.36200
C1275       C  0.01637797  0.86955061  0.18004060     0.36900
C1276       C  0.43452032  0.94099464  0.19578330     0.40100
N1277       N  0.47125923  0.72959577  0.17317156    -0.38000
N1278       N  0.48693021  0.80400058  0.21047557    -0.39500
N1279       N  0.30491019  0.74476216  0.15930722    -0.37300
N1280       N  0.38403882  0.85854656  0.15196858    -0.39700
N1281       N  0.35817274  0.84364607  0.19684930    -0.39500
N1282       N  0.41923442  0.95836295  0.19300056    -0.37100
N1283       N  0.07509226  0.92885230  0.21513612    -0.38100
N1284       N  0.03554999  0.86076835  0.17240430    -0.39800
C1285       C  0.29186172  0.92826065  0.92089594    -0.04700
C1286       C  0.29587192  0.90895245  0.93521805     0.09400
C1287       C  0.26427525  0.87575130  0.94062761    -0.02100
C1288       C  0.22854076  0.86222186  0.93199313    -0.00400
C1289       C  0.22522489  0.87799075  0.91573171    -0.04000
C1290       C  0.25641636  0.91402820  0.91182642     0.03000
C1291       C  0.33100082  0.92655480  0.94667022     0.09900
C1292       C  0.26817949  0.85640530  0.95584372     0.35800
C1293       C  0.25037451  0.94094626  0.90192650     0.39200
C1294       C  0.33458116  0.95231231  0.95997552    -0.04400
C1295       C  0.36442332  0.96451247  0.97260206     0.02800
C1296       C  0.39086202  0.95094591  0.97199601    -0.04000
C1297       C  0.38845124  0.92687136  0.95802724    -0.00200
C1298       C  0.35841890  0.91452261  0.94549813    -0.02700
C1299       C  0.30651276  0.96500978  0.96107624     0.36500
C1300       C  0.41712536  0.91514657  0.95629633     0.40100
C1301       C  0.36660255  0.98942886  0.98673220     0.39300
C1302       C  0.35491124  0.88849302  0.93165946     0.36200
C1303       C  0.32394179  0.96393803  0.91604221     0.36900
C1304       C  0.19596814  0.83815057  0.94236138     0.40100
N1305       N  0.36837687  0.00928433  0.99801546    -0.38000
N1306       N  0.28411562  0.97512235  0.96192963    -0.39500
N1307       N  0.43986770  0.90569713  0.95464133    -0.37300
N1308       N  0.35190256  0.86758847  0.92064864    -0.39700
N1309       N  0.27140131  0.84092925  0.96788203    -0.39500
N1310       N  0.17133253  0.81975762  0.95156949    -0.37100
N1311       N  0.24796628  0.96480057  0.89483825    -0.38100
N1312       N  0.34951865  0.99237963  0.91220228    -0.39800
C1313       C  0.11277808  0.71708021  0.93191171    -0.04700
C1314       C  0.07303645  0.69406120  0.93013620     0.09400
C1315       C  0.05290747  0.70190281  0.91706378    -0.02100
C1316       C  0.07226432  0.73349341  0.90620701    -0.00400
C1317       C  0.11197976  0.75854379  0.90871966    -0.04000
C1318       C  0.13218636  0.74871877  0.92120050     0.03000
C1319       C  0.05285267  0.66253171  0.94268267     0.09900
C1320       C  0.01199014  0.67776258  0.91508363     0.35800
C1321       C  0.17339494  0.76820652  0.92207904     0.39200
C1322       C  0.04302202  0.67024155  0.95919200    -0.04400
C1323       C  0.03227031  0.64347547  0.97258886     0.02800
C1324       C  0.03123664  0.60855796  0.96956851    -0.04000
C1325       C  0.03637443  0.59918187  0.95231803    -0.00200
C1326       C  0.04761688  0.62632091  0.93900213    -0.02700
C1327       C  0.04506343  0.70632286  0.96246628     0.36500
C1328       C  0.53152069  0.56217052  0.94823415     0.40100
C1329       C  0.02197408  0.65194232  0.98945637     0.39300
C1330       C  0.05483459  0.61729105  0.92162810     0.36200
C1331       C  0.13377582  0.70814264  0.94499544     0.36900
C1332       C  0.05093666  0.73831354  0.89200370     0.40100
N1333       N  0.01368836  0.65871188  0.00288576    -0.38000
N1334       N  0.04660622  0.73510240  0.96494460    -0.39500
N1335       N  0.52693619  0.53256604  0.94470277    -0.37300
N1336       N  0.56082944  0.60949722  0.90786821    -0.39700
N1337       N  0.97932531  0.65859237  0.91357834    -0.39500
N1338       N  0.03235791  0.73925682  0.88050204    -0.37100
N1339       N  0.20622565  0.78128283  0.92320657    -0.38100
N1340       N  0.15035844  0.70094758  0.95546068    -0.39800
C1341       C  0.10680347  0.90050532  0.94308602    -0.04700
C1342       C  0.06893246  0.89249000  0.93986346     0.09400
C1343       C  0.04848647  0.86919586  0.92545172    -0.02100
C1344       C  0.06587311  0.85402015  0.91447721    -0.00400
C1345       C  0.10526543  0.86532900  0.91647719    -0.04000
C1346       C  0.12539800  0.88865525  0.93115043     0.03000
C1347       C  0.05056742  0.90738595  0.95229704     0.09900
C1348       C  0.00918493  0.86019228  0.92208771     0.35800
C1349       C  0.16593941  0.90344585  0.93394639     0.39200
C1350       C  0.06448547  0.94653014  0.95412625    -0.04400
C1351       C  0.05060748  0.96082346  0.96734092     0.02800
C1352       C  0.02035416  0.93603401  0.97801215    -0.04000
C1353       C  0.00586066  0.89662569  0.97580289    -0.00200
C1354       C  0.02177329  0.88265740  0.96345722    -0.02700
C1355       C  0.09386624  0.97228048  0.94260509     0.36500
C1356       C  0.47380422  0.86977298  0.98580195     0.40100
C1357       C  0.06949952  0.50098342  0.97066057     0.39300
C1358       C  0.50901870  0.84260927  0.96249224     0.36200
C1359       C  0.12673977  0.92096778  0.95895037     0.36900
C1360       C  0.04191422  0.82452272  0.90219383     0.40100
N1361       N  0.08495964  0.53307208  0.97332621    -0.38000
N1362       N  0.11745519  0.99284193  0.93349552    -0.39500
N1363       N  0.44813479  0.84823536  0.99366966    -0.37300
N1364       N  0.49883644  0.81072027  0.96170174    -0.39700
N1365       N  0.97776150  0.85276556  0.91944490    -0.39500
N1366       N  0.02096100  0.80048214  0.89298259    -0.37100
N1367       N  0.19822208  0.91824362  0.93736341    -0.38100
N1368       N  0.14245124  0.93719843  0.97160289    -0.39800
C1369       C  0.06530705  0.88368256  0.85492242    -0.04700
C1370       C  0.07787120  0.92134914  0.85960764     0.09400
C1371       C  0.10569834  0.93820361  0.87302723    -0.02100
C1372       C  0.12143739  0.91776942  0.88149068    -0.00400
C1373       C  0.10941789  0.87971568  0.87670413    -0.04000
C1374       C  0.08058878  0.86290731  0.86344218     0.03000
C1375       C  0.06217039  0.94356933  0.85022818     0.09900
C1376       C  0.11862146  0.97710608  0.87792310     0.35800
C1377       C  0.06370534  0.82348254  0.85909221     0.39200
C1378       C  0.03333969  0.94891866  0.85768960    -0.04400
C1379       C  0.02011361  0.97154572  0.84927904     0.02800
C1380       C  0.03100456  0.98402480  0.83179914    -0.04000
C1381       C  0.06506626  0.98462554  0.82630263    -0.00200
C1382       C  0.07912437  0.96287800  0.83487394    -0.02700
C1383       C  0.01744237  0.93129578  0.87421131     0.36500
C1384       C  0.08992661  0.01244334  0.81413581     0.40100
C1385       C  0.50152959  0.98663869  0.86018271     0.39300
C1386       C  0.11169395  0.96087229  0.82811476     0.36200
C1387       C  0.03574719  0.86592480  0.84147496     0.36900
C1388       C  0.15148325  0.93744503  0.89445486     0.40100
N1389       N  0.48747651  0.99845419  0.86960213    -0.38000
N1390       N  0.00457435  0.91701291  0.88731237    -0.39500
N1391       N  0.11201663  0.03464102  0.80501407    -0.37300
N1392       N  0.13760990  0.95893188  0.82289016    -0.39700
N1393       N  0.12894833  0.50812701  0.88174620    -0.39500
N1394       N  0.17524849  0.95510947  0.90463799    -0.37100
N1395       N  0.04734695  0.79220782  0.85485271    -0.38100
N1396       N  0.51194563  0.85136144  0.83086512    -0.39800
C1397       C  0.10144600  0.69949621  0.86523578    -0.04700
C1398       C  0.07830009  0.69671670  0.85071166     0.09400
C1399       C  0.08250778  0.73014806  0.84330518    -0.02100
C1400       C  0.10640524  0.76546485  0.85149421    -0.00400
C1401       C  0.12320418  0.76733613  0.86827119    -0.04000
C1402       C  0.12557005  0.73478223  0.87314844     0.03000
C1403       C  0.05651756  0.65952003  0.84126490     0.09900
C1404       C  0.06345061  0.72854224  0.82684300     0.35800
C1405       C  0.15779288  0.73776767  0.88313907     0.39200
C1406       C  0.02020081  0.63219319  0.84676942    -0.04400
C1407       C  0.00174155  0.59580108  0.83894523     0.02800
C1408       C  0.01932624  0.58644911  0.82522526    -0.04000
C1409       C  0.05697689  0.61352749  0.82074466    -0.00200
C1410       C  0.07485884  0.64989853  0.82832721    -0.02700
C1411       C  0.00172461  0.64174185  0.86046510     0.36500
C1412       C  0.07949146  0.60397309  0.80946659     0.40100
C1413       C  0.46376520  0.56897419  0.84456937     0.39300
C1414       C  0.11318659  0.67736921  0.82332642     0.36200
C1415       C  0.10284600  0.66624782  0.87110540     0.36900
C1416       C  0.11779618  0.79870312  0.84107820     0.40100
N1417       N  0.43361209  0.54795665  0.84931661    -0.38000
N1418       N  0.98682391  0.64929613  0.87135427    -0.39500
N1419       N  0.10048874  0.59925074  0.80108486    -0.37300
N1420       N  0.14373428  0.69940437  0.81948544    -0.39700
N1421       N  0.54865960  0.72833371  0.81368750    -0.39500
N1422       N  0.12660478  0.82433924  0.83209209    -0.37100
N1423       N  0.18279258  0.73601128  0.89001998    -0.38100
N1424       N  0.10432284  0.63980491  0.87550816    -0.39800
C1425       C  0.36511030  0.93660502  0.85212511    -0.04700
C1426       C  0.33222874  0.93674464  0.84504651     0.09400
C1427       C  0.33616580  0.95525821  0.82895625    -0.02100
C1428       C  0.37261062  0.97657876  0.82169131    -0.00400
C1429       C  0.40345373  0.97070957  0.82697593    -0.04000
C1430       C  0.39792006  0.94825396  0.84188607     0.03000
C1431       C  0.29414041  0.91677575  0.85424441     0.09900
C1432       C  0.30305877  0.95204238  0.81942722     0.35800
C1433       C  0.42147919  0.93108582  0.84527655     0.39200
C1434       C  0.27122274  0.93403251  0.85694304    -0.04400
C1435       C  0.23464613  0.91334779  0.86422883     0.02800
C1436       C  0.22568949  0.88083767  0.87414001    -0.04000
C1437       C  0.24962707  0.86458013  0.87228005    -0.00200
C1438       C  0.28032429  0.87985518  0.86057679    -0.02700
C1439       C  0.28550437  0.97349397  0.85324061     0.36500
C1440       C  0.24419265  0.83289466  0.88256963     0.40100
C1441       C  0.20724849  0.92638699  0.86141370     0.39300
C1442       C  0.29674693  0.85694055  0.85469761     0.36200
C1443       C  0.36555191  0.92440367  0.86989855     0.36900
C1444       C  0.37792670  0.00650372  0.81005084     0.40100
N1445       N  0.18653142  0.93778750  0.85807611    -0.38000
N1446       N  0.29679422  0.50501678  0.85043121    -0.39500
N1447       N  0.24289392  0.80872542  0.89089237    -0.37300
N1448       N  0.30963438  0.83858432  0.84987879    -0.39700
N1449       N  0.27687436  0.94991413  0.81178776    -0.39500
N1450       N  0.37966894  0.03044940  0.80135834    -0.37100
N1451       N  0.43738534  0.91432720  0.84814531    -0.38100
N1452       N  0.36593851  0.91483058  0.88410011    -0.39800
C1453       C  0.27142449  0.88942521  0.75611667    -0.04700
C1454       C  0.30915983  0.90413919  0.75029094     0.09400
C1455       C  0.31593254  0.90685773  0.73211667    -0.00600
C1456       C  0.28597629  0.89906790  0.71999348    -0.00400
C1457       C  0.24873490  0.88728057  0.72591786    -0.04000
C1458       C  0.24121375  0.88045327  0.74397207     0.03000
C1459       C  0.34222500  0.92324044  0.76300535     0.09900
C1460       C  0.35433956  0.91979663  0.72599647     0.35800
C1461       C  0.20268771  0.86596206  0.75027081     0.39200
C1462       C  0.35164153  0.90311968  0.77529025    -0.04400
C1463       C  0.38230667  0.92244714  0.78745987     0.02800
C1464       C  0.40571150  0.96200575  0.78667507    -0.04000
C1465       C  0.39673264  0.98158138  0.77363064    -0.00200
C1466       C  0.36420656  0.96257020  0.76265216    -0.02700
C1467       C  0.33015690  0.86242244  0.77516454     0.36500
C1468       C  0.41853756  0.52179331  0.77146514     0.40100
C1469       C  0.38951090  0.90101338  0.80056481     0.39300
C1470       C  0.35292788  0.98382035  0.75092412     0.36200
C1471       C  0.26378349  0.88499996  0.77467113     0.36900
C1472       C  0.29354497  0.90324855  0.70142412     0.40100
N1473       N  0.39353923  0.88256201  0.81093816    -0.38000
N1474       N  0.31302938  0.82993344  0.77501651    -0.39500
N1475       N  0.43150723  0.55324721  0.76811604    -0.37300
N1476       N  0.34406957  0.00072514  0.74159099    -0.39700
N1477       N  0.38513532  0.43044439  0.72126035    -0.39500
N1478       N  0.29959452  0.90663712  0.68661075    -0.37100
N1479       N  0.17196995  0.85421764  0.75530759    -0.38100
N1480       N  0.25739499  0.88089334  0.78943798    -0.39800
C1481       C  0.01247354  0.64087862  0.77956330    -0.04700
C1482       C  0.03453085  0.64437422  0.76494177     0.09400
C1483       C  0.03675438  0.61305377  0.75875888    -0.02100
C1484       C  0.01760354  0.57872252  0.76740286    -0.00400
C1485       C  0.00441865  0.57761757  0.78471346    -0.04000
C1486       C  0.99755109  0.60778942  0.78952116     0.03000
C1487       C  0.05140788  0.67893438  0.75431662     0.09900
C1488       C  0.05672321  0.61546964  0.74270269     0.35800
C1489       C  0.96931229  0.60272219  0.80233118     0.39200
C1490       C  0.09133876  0.70194104  0.75453292    -0.04400
C1491       C  0.10865418  0.72804551  0.74116780     0.02800
C1492       C  0.08580749  0.73200081  0.72795170    -0.04000
C1493       C  0.04575159  0.71226171  0.72900979    -0.00200
C1494       C  0.02848602  0.68472417  0.74182263    -0.02700
C1495       C  0.11458805  0.69697546  0.76791051     0.36500
C1496       C  0.02244747  0.72145407  0.71748487     0.40100
C1497       C  0.14998827  0.74953539  0.74058236     0.39300
C1498       C  0.48725855  0.66114328  0.74161140     0.36200
C1499       C  0.00249365  0.66995586  0.78337310     0.36900
C1500       C  0.50516585  0.54564110  0.75644792     0.40100
N1501       N  0.18293017  0.76664475  0.74009503    -0.38000
N1502       N  0.13310609  0.69289915  0.77854682    -0.39500
N1503       N  0.00366302  0.72933780  0.70869765    -0.37300
N1504       N  0.45446003  0.64216453  0.74144042    -0.39700
N1505       N  0.07287333  0.61758145  0.72999783    -0.39500
N1506       N  0.49527617  0.52027815  0.74691301    -0.37100
N1507       N  0.94658079  0.60045017  0.81208997    -0.38100
N1508       N  0.99340776  0.69251785  0.78592499    -0.39800
C1509       C  0.03185460  0.91535166  0.78362055    -0.04700
C1510       C  0.05541700  0.93449197  0.76953708     0.09400
C1511       C  0.06230422  0.97092622  0.76572976    -0.02100
C1512       C  0.04777310  0.98909921  0.77644153    -0.00400
C1513       C  0.02295335  0.97000640  0.79040200    -0.04000
C1514       C  0.01474279  0.93245054  0.79364306     0.03000
C1515       C  0.07352981  0.91703979  0.75845880     0.09900
C1516       C  0.08521679  0.99017782  0.75072672     0.35800
C1517       C  0.98899647  0.91106007  0.80730153     0.39200
C1518       C  0.05181880  0.89038739  0.74530708    -0.04400
C1519       C  0.06985143  0.87835887  0.73308609     0.02800
C1520       C  0.11013637  0.89434157  0.73335337    -0.04000
C1521       C  0.13173713  0.92032149  0.74684497    -0.00200
C1522       C  0.11343218  0.93105600  0.75948758    -0.02700
C1523       C  0.01115172  0.87719503  0.74366472     0.36500
C1524       C  0.17293175  0.93633400  0.74772628     0.40100
C1525       C  0.04689732  0.85095798  0.71967345     0.39300
C1526       C  0.13593486  0.95800456  0.77313408     0.36200
C1527       C  0.02545959  0.87802591  0.78773891     0.36900
C1528       C  0.06318026  0.52887455  0.77386195     0.40100
N1529       N  0.02853927  0.82894061  0.70904095    -0.38000
N1530       N  0.47893114  0.86724705  0.74232677    -0.39500
N1531       N  0.20580477  0.94931554  0.74840690    -0.37300
N1532       N  0.15410079  0.47991791  0.78388362    -0.39700
N1533       N  0.10347792  0.00544075  0.73880416    -0.39500
N1534       N  0.07908719  0.56042207  0.77049680    -0.37100
N1535       N  0.96898677  0.89321248  0.81825797    -0.38100
N1536       N  0.02068632  0.84825877  0.79083830    -0.39800
C1537       C  0.22016429  0.70985902  0.40818311    -0.04700
C1538       C  0.23998429  0.74084996  0.41969691     0.09400
C1539       C  0.28017925  0.76116295  0.41949166    -0.02100
C1540       C  0.30018428  0.75327881  0.40667352    -0.00400
C1541       C  0.28040680  0.72281016  0.39475627    -0.04000
C1542       C  0.24034899  0.70011567  0.39612731     0.03000
C1543       C  0.21858131  0.75612050  0.42970584     0.09900
C1544       C  0.30137140  0.79055101  0.43237400     0.35800
C1545       C  0.21942174  0.66777540  0.38463124     0.39200
C1546       C  0.19753583  0.73805405  0.44454168    -0.04400
C1547       C  0.17713352  0.75302997  0.45343394     0.02800
C1548       C  0.18164351  0.78890211  0.44902923    -0.04000
C1549       C  0.19641191  0.80232887  0.43206427    -0.00200
C1550       C  0.21611997  0.78697813  0.42297653    -0.02700
C1551       C  0.19722684  0.70429587  0.45077835     0.36500
C1552       C  0.18853780  0.82844657  0.42243709     0.40100
C1553       C  0.14897970  0.72948896  0.46586571     0.39300
C1554       C  0.23343702  0.80256771  0.40631396     0.36200
C1555       C  0.17878964  0.68903404  0.40823039     0.36900
C1556       C  0.34129835  0.77700753  0.40583257     0.40100
N1557       N  0.12638751  0.70892401  0.47533464    -0.38000
N1558       N  0.19711749  0.67744682  0.45579396    -0.39500
N1559       N  0.18247750  0.84857637  0.41394906    -0.37300
N1560       N  0.24720064  0.81490424  0.39305404    -0.39700
N1561       N  0.31985159  0.81381958  0.44248554    -0.39500
N1562       N  0.37398799  0.79620928  0.40512343    -0.37100
N1563       N  0.20260493  0.64175956  0.37559019    -0.38100
N1564       N  0.14578765  0.67256494  0.40832207    -0.39800
C1565       C  0.49228495  0.75054155  0.40218656    -0.04700
C1566       C  0.98542128  0.75275066  0.42006763     0.09400
C1567       C  0.44785866  0.74195098  0.42542307    -0.02100
C1568       C  0.41796512  0.73050396  0.41284312    -0.00400
C1569       C  0.42563989  0.73115737  0.39483742    -0.04000
C1570       C  0.46278787  0.74070251  0.38956490     0.03000
C1571       C  0.01846190  0.77083710  0.43284721     0.09900
C1572       C  0.44026065  0.74379993  0.44376894     0.35800
C1573       C  0.47071896  0.74061109  0.37112190     0.39200
C1574       C  0.04447679  0.80933984  0.43134066    -0.04400
C1575       C  0.07807170  0.82629358  0.44178401     0.02800
C1576       C  0.08432822  0.80604206  0.45542657    -0.04000
C1577       C  0.05698476  0.76753999  0.45733957    -0.00200
C1578       C  0.02479182  0.74992952  0.44586283    -0.02700
C1579       C  0.03648630  0.83171536  0.41888378     0.36500
C1580       C  0.06199299  0.74514216  0.47066591     0.40100
C1581       C  0.10548558  0.86482119  0.43804485     0.39300
C1582       C  0.49829426  0.71008992  0.44727334     0.36200
C1583       C  0.03030270  0.75944508  0.39666442     0.36900
C1584       C  0.37959085  0.71945497  0.41844025     0.40100
N1585       N  0.12579905  0.89520060  0.43376264    -0.38000
N1586       N  0.02997716  0.84943248  0.40898922    -0.39500
N1587       N  0.06428531  0.72617030  0.48128840    -0.37300
N1588       N  0.47715479  0.67828560  0.44832930    -0.39700
N1589       N  0.43402725  0.74498567  0.45840747    -0.39500
N1590       N  0.34898074  0.71031233  0.42301622    -0.37100
N1591       N  0.47703410  0.74076030  0.35640291    -0.38100
N1592       N  0.06062530  0.76669364  0.39235870    -0.39800
C1593       C  0.24248108  0.95458819  0.43236601    -0.04700
C1594       C  0.22684283  0.97867717  0.43414108     0.09400
C1595       C  0.19986887  0.97186731  0.44704831    -0.02100
C1596       C  0.18807126  0.94053007  0.45808073    -0.00400
C1597       C  0.20206249  0.91471307  0.45575813    -0.04000
C1598       C  0.23030373  0.92290623  0.44307428     0.03000
C1599       C  0.23915709  0.01098601  0.42205208     0.09900
C1600       C  0.18291908  0.49619186  0.44836448     0.35800
C1601       C  0.24854320  0.90021171  0.44089068     0.39200
C1602       C  0.22034440  0.50576726  0.40571941    -0.04400
C1603       C  0.23697498  0.53291668  0.39263768     0.02800
C1604       C  0.27286591  0.56507784  0.39577944    -0.04000
C1605       C  0.28996886  0.57175119  0.41270997    -0.00200
C1606       C  0.27298209  0.54473095  0.42584122    -0.02700
C1607       C  0.18462672  0.47171586  0.40215157     0.36500
C1608       C  0.32624135  0.60509693  0.41638026     0.40100
C1609       C  0.21707069  0.52780705  0.37595878     0.39300
C1610       C  0.29123080  0.05061835  0.44297367     0.36200
C1611       C  0.27099700  0.96231742  0.41917568     0.36900
C1612       C  0.15975629  0.93437704  0.47096851     0.40100
N1613       N  0.20117840  0.52390263  0.36267957    -0.38000
N1614       N  0.15605081  0.94463850  0.39926738    -0.39500
N1615       N  0.35524660  0.63156519  0.41937989    -0.37300
N1616       N  0.30562177  0.05519739  0.45668566    -0.39700
N1617       N  0.16916119  0.51540275  0.44928729    -0.39500
N1618       N  0.13740446  0.93162053  0.48103956    -0.37100
N1619       N  0.26542368  0.88470970  0.43770822    -0.38100
N1620       N  0.29366025  0.96854558  0.40866436    -0.39800
C1621       C  0.28224073  0.75854489  0.58509776    -0.04700
C1622       C  0.25830804  0.73805716  0.59876921     0.09400
C1623       C  0.25010408  0.70069143  0.60141319    -0.02100
C1624       C  0.26521401  0.68362241  0.59029385    -0.00400
C1625       C  0.29075971  0.70439774  0.57689409    -0.04000
C1626       C  0.29984773  0.74261576  0.57479281     0.03000
C1627       C  0.24198998  0.75570119  0.61071989     0.09900
C1628       C  0.22612339  0.67980416  0.61581487     0.35800
C1629       C  0.33017261  0.76761962  0.56360818     0.39200
C1630       C  0.20278943  0.74477198  0.60947425    -0.04400
C1631       C  0.18613545  0.75718906  0.62214870     0.02800
C1632       C  0.20862763  0.78085066  0.63610202    -0.04000
C1633       C  0.24822308  0.79350942  0.63683195    -0.00200
C1634       C  0.26489670  0.78094575  0.62417018    -0.02700
C1635       C  0.17938486  0.71978215  0.59539878     0.36500
C1636       C  0.27141244  0.81787928  0.65111593     0.40100
C1637       C  0.14565978  0.74527130  0.62092845     0.39300
C1638       C  0.30536295  0.79293631  0.62534562     0.36200
C1639       C  0.28917577  0.79644057  0.58180203     0.36900
C1640       C  0.25336888  0.64433916  0.59284350     0.40100
N1641       N  0.11337273  0.73569008  0.61991512    -0.38000
N1642       N  0.16070006  0.69962141  0.58423760    -0.39500
N1643       N  0.28990437  0.83719235  0.66255212    -0.37300
N1644       N  0.33769779  0.80270793  0.62628919    -0.39700
N1645       N  0.20701403  0.66331965  0.62731184    -0.39500
N1646       N  0.24220245  0.61288698  0.59566713    -0.37100
N1647       N  0.35416549  0.78974702  0.55518044    -0.38100
N1648       N  0.29458377  0.82657064  0.57908373    -0.39800
C1649       C  0.04065463  0.78500470  0.61344810    -0.04700
C1650       C  0.50479589  0.75345337  0.61676810     0.09400
C1651       C  0.99951108  0.73377500  0.63235993    -0.02100
C1652       C  0.02953565  0.74515190  0.64481225    -0.00400
C1653       C  0.06615629  0.77601519  0.64149069    -0.04000
C1654       C  0.07146281  0.79560911  0.62550502     0.03000
C1655       C  0.47275171  0.74016082  0.60353076     0.09900
C1656       C  0.46292018  0.70049821  0.63549428     0.35800
C1657       C  0.10899922  0.82497906  0.62069182     0.39200
C1658       C  0.47101869  0.71705550  0.58942995    -0.04400
C1659       C  0.43885884  0.70107955  0.57795982     0.02800
C1660       C  0.40789513  0.70842181  0.58037288    -0.04000
C1661       C  0.40986610  0.73130566  0.59489914    -0.00200
C1662       C  0.44230585  0.74740945  0.60616860    -0.02700
C1663       C  0.00173530  0.70818066  0.58735079     0.36500
C1664       C  0.37916259  0.73917946  0.59861702     0.40100
C1665       C  0.43661944  0.67421186  0.56487600     0.39300
C1666       C  0.44422358  0.77112885  0.62082171     0.36200
C1667       C  0.04566879  0.80611093  0.59754240     0.36900
C1668       C  0.02221214  0.72425755  0.66091317     0.40100
N1669       N  0.43612817  0.65302798  0.55460905    -0.38000
N1670       N  0.02621700  0.70104091  0.58590542    -0.39500
N1671       N  0.35589486  0.74654032  0.60267564    -0.37300
N1672       N  0.44570831  0.78993771  0.63252306    -0.39700
N1673       N  0.43387131  0.67416718  0.63797160    -0.39500
N1674       N  0.01607492  0.70690629  0.67355173    -0.37100
N1675       N  0.13888507  0.84812917  0.61662547    -0.38100
N1676       N  0.54922804  0.82294717  0.58500233    -0.39800
C1677       C  0.25085207  0.96663029  0.61129312    -0.04700
C1678       C  0.24829329  0.49989051  0.61288295     0.09400
C1679       C  0.23217842  0.50623327  0.62789705    -0.02100
C1680       C  0.21892761  0.97965026  0.64135120    -0.00400
C1681       C  0.22201561  0.94653109  0.63999828    -0.04000
C1682       C  0.23789413  0.94002934  0.62484560     0.03000
C1683       C  0.26646183  0.53056121  0.59983718     0.09900
C1684       C  0.23033298  0.54083296  0.62972166     0.35800
C1685       C  0.24291417  0.90710923  0.62358561     0.39200
C1686       C  0.24592605  0.53197703  0.58502770    -0.04400
C1687       C  0.26169051  0.56379022  0.57411769     0.02800
C1688       C  0.29892745  0.59433777  0.57770212    -0.04000
C1689       C  0.31947309  0.59183016  0.59255198    -0.00200
C1690       C  0.30329404  0.56022289  0.60342973    -0.02700
C1691       C  0.20787005  0.50107732  0.58148004     0.36500
C1692       C  0.35781799  0.62074713  0.59697396     0.40100
C1693       C  0.23780451  0.56584130  0.56021710     0.39300
C1694       C  0.32435599  0.55834758  0.61873794     0.36200
C1695       C  0.26800026  0.96048790  0.59596350     0.36900
C1696       C  0.20172664  0.98641811  0.65653169     0.40100
N1697       N  0.21785492  0.56628110  0.54920993    -0.38000
N1698       N  0.17754701  0.47624973  0.57878503    -0.39500
N1699       N  0.38838009  0.64175451  0.60181810    -0.37300
N1700       N  0.34092536  0.55677121  0.63096855    -0.39700
N1701       N  0.22910811  0.56852264  0.63126182    -0.39500
N1702       N  0.18811923  0.99188402  0.66864921    -0.37100
N1703       N  0.24719156  0.88100972  0.62258555    -0.38100
N1704       N  0.28170438  0.95557326  0.58373805    -0.39800
C1705       C  0.29407406  0.75359614  0.51890193    -0.04700
C1706       C  0.25379089  0.73651645  0.51767949     0.09400
C1707       C  0.23228239  0.70077610  0.52532953    -0.02100
C1708       C  0.25047792  0.68605326  0.53632435    -0.00400
C1709       C  0.29072749  0.70199390  0.53649486    -0.04000
C1710       C  0.31173976  0.73371609  0.52595386     0.03000
C1711       C  0.23452435  0.75575460  0.50819551     0.09900
C1712       C  0.19169823  0.67842790  0.52150292     0.35800
C1713       C  0.35158844  0.74718743  0.52242009     0.39200
C1714       C  0.24594776  0.77070295  0.49135735    -0.04400
C1715       C  0.23254371  0.79407607  0.48404740     0.02800
C1716       C  0.19875868  0.79291862  0.49018284    -0.04000
C1717       C  0.18335406  0.77203371  0.50558262    -0.00200
C1718       C  0.20455692  0.75941447  0.51577567    -0.02700
C1719       C  0.27032729  0.76107802  0.48118943     0.36500
C1720       C  0.14314728  0.75491139  0.50892987     0.40100
C1721       C  0.25472859  0.81929397  0.47056764     0.39300
C1722       C  0.19479249  0.74983947  0.53390917     0.36200
C1723       C  0.31775261  0.79233004  0.51371886     0.36900
C1724       C  0.22728637  0.65449961  0.54728222     0.40100
N1725       N  0.27437476  0.83886473  0.45998508    -0.38000
N1726       N  0.28945863  0.75296767  0.47310917    -0.39500
N1727       N  0.11099793  0.73764740  0.51186638    -0.37300
N1728       N  0.18709636  0.74234739  0.54839841    -0.39700
N1729       N  0.15936808  0.66048146  0.51837597    -0.39500
N1730       N  0.20775663  0.63012401  0.55624443    -0.37100
N1731       N  0.38307192  0.75921402  0.51850913    -0.38100
N1732       N  0.33672267  0.82322883  0.50965936    -0.39800
C1733       C  0.26648207  0.55150517  0.51337460    -0.04700
C1734       C  0.27474475  0.52342548  0.51932386     0.09400
C1735       C  0.30099252  0.53180608  0.53333273    -0.02100
C1736       C  0.31789441  0.56748131  0.54171825    -0.00400
C1737       C  0.30648914  0.59456205  0.53713732    -0.04000
C1738       C  0.28211145  0.58676996  0.52214942     0.03000
C1739       C  0.25422709  0.98448845  0.51139426     0.09900
C1740       C  0.30974957  0.00311030  0.53945818     0.35800
C1741       C  0.27160373  0.61402098  0.51576532     0.39200
C1742       C  0.27285578  0.97144464  0.50011189    -0.04400
C1743       C  0.25272766  0.93509826  0.49240676     0.02800
C1744       C  0.21313398  0.91200122  0.49508303    -0.04000
C1745       C  0.19562720  0.92401035  0.50769915    -0.00200
C1746       C  0.21600160  0.96005155  0.51563190    -0.02700
C1747       C  0.31286972  0.49532572  0.49649790     0.36500
C1748       C  0.15625348  0.90077697  0.51240046     0.40100
C1749       C  0.27383817  0.92074083  0.48287412     0.39300
C1750       C  0.19727637  0.97233817  0.52808379     0.36200
C1751       C  0.24071892  0.54350433  0.49843705     0.36900
C1752       C  0.34799736  0.57606889  0.55460601     0.40100
N1753       N  0.29243035  0.91038746  0.47588025    -0.38000
N1754       N  0.34488070  0.51435630  0.49368787    -0.39500
N1755       N  0.12503803  0.88495195  0.51695255    -0.37300
N1756       N  0.18199392  0.98189941  0.53791844    -0.39700
N1757       N  0.31652428  0.97998701  0.54423513    -0.39500
N1758       N  0.37176549  0.58123237  0.56480570    -0.37100
N1759       N  0.26286455  0.63500598  0.50993049    -0.38100
N1760       N  0.22002699  0.53703968  0.48658354    -0.39800
C1761       C  0.02298930  0.79991255  0.49939903    -0.04700
C1762       C  0.01857115  0.77648100  0.51356963     0.09400
C1763       C  0.05076807  0.77615329  0.52087780    -0.02100
C1764       C  0.08688522  0.79765690  0.51343370    -0.00400
C1765       C  0.09000369  0.81425505  0.49672161    -0.04000
C1766       C  0.05870726  0.81970594  0.49137344     0.03000
C1767       C  0.48106076  0.75575716  0.52228751     0.09900
C1768       C  0.04680016  0.75427217  0.53641285     0.35800
C1769       C  0.06360838  0.84916714  0.47944764     0.39200
C1770       C  0.45449125  0.71924194  0.51669513    -0.04400
C1771       C  0.41985513  0.69881389  0.52552950     0.02800
C1772       C  0.41098399  0.71530131  0.53992105    -0.04000
C1773       C  0.43709529  0.75337321  0.54454388    -0.00200
C1774       C  0.47223058  0.77292839  0.53607001    -0.02700
C1775       C  0.46316823  0.70263306  0.50182965     0.36500
C1776       C  0.42782735  0.77395970  0.55727332     0.40100
C1777       C  0.39479722  0.66034102  0.51995570     0.39300
C1778       C  0.49944191  0.81118320  0.54137682     0.36200
C1779       C  0.49083637  0.80435264  0.49352595     0.36900
C1780       C  0.11965908  0.80804879  0.52492164     0.40100
N1781       N  0.37605093  0.62988558  0.51482218    -0.38000
N1782       N  0.47006532  0.68951725  0.48992713    -0.39500
N1783       N  0.42255314  0.79202150  0.56740598    -0.37300
N1784       N  0.02106870  0.84172607  0.54549243    -0.39700
N1785       N  0.04350375  0.73656168  0.54870910    -0.39500
N1786       N  0.14472958  0.81608173  0.53481920    -0.37100
N1787       N  0.06494933  0.87221172  0.47020951    -0.38100
N1788       N  0.46517674  0.80801561  0.48893122    -0.39800
C1789       C  0.83514503  0.16998137  0.54097495     0.46200
H1790       H  0.83655139  0.17108273  0.52652719    -0.02800
C1791       C  0.83211801  0.16895544  0.57483599     0.46200
H1792       H  0.83060376  0.16840886  0.58930029    -0.02800
C1793       C  0.87482869  0.19288566  0.55008016    -0.16500
C1794       C  0.81072844  0.18683637  0.54818843    -0.16300
C1795       C  0.81816096  0.12956793  0.54848338    -0.16700
C1796       C  0.87330868  0.19149052  0.56812906    -0.16600
C1797       C  0.80969096  0.18693790  0.56620386    -0.16200
C1798       C  0.81583924  0.12923092  0.56655170    -0.16500
C1799       C  0.65890012  0.33977303  0.45732688     0.46200
H1800       H  0.65430211  0.34176168  0.44341652    -0.02800
C1801       C  0.66621466  0.33748054  0.49082591     0.46200
H1802       H  0.67190018  0.33797984  0.50490596    -0.02800
C1803       C  0.67417471  0.31268504  0.46246273    -0.16500
C1804       C  0.68584369  0.37870493  0.46585505    -0.16300
C1805       C  0.62070647  0.32436160  0.46652559    -0.16700
C1806       C  0.67937871  0.31241120  0.48058724    -0.16600
C1807       C  0.68985144  0.37740478  0.48364138    -0.16200
C1808       C  0.62390430  0.32466574  0.48467668    -0.16500
O1809       O  0.59782101  0.24441257  0.69772726    -0.80200
O1810       O  0.68703579  0.38427582  0.65084512    -0.64800
O1811       O  0.66279045  0.30912704  0.68522269    -1.11400
C1812       C  0.62973599  0.38533925  0.71915959     1.06700
O1813       O  0.71800162  0.43070726  0.67010665    -0.78100
O1814       O  0.72380981  0.40930420  0.70304337    -0.65600
Ni1815     Ni  0.63427047  0.25676739  0.67914261     1.34900
C1816       C  0.71790334  0.38298773  0.71350516     0.85500
O1817       O  0.69587305  0.32347024  0.65208196    -0.78600
O1818       O  0.66792265  0.26303006  0.66029063    -0.88900
C1819       C  0.70823557  0.41883587  0.65440672     0.85000
O1820       O  0.59898779  0.25952306  0.66303475    -0.67100
O1821       O  0.65824875  0.41225984  0.71179852    -0.86400
C1822       C  0.59897688  0.28579305  0.65414332     0.85900
C1823       C  0.68994100  0.28988264  0.65051582     1.07400
H1824       H  0.63125345  0.36609033  0.67809488     0.39200
O1825       O  0.65412959  0.36740836  0.68317614    -1.09000
O1826       O  0.68603662  0.35328743  0.71426633    -0.65700
Ni1827     Ni  0.63988626  0.32967119  0.70035509     1.26300
O1828       O  0.62596637  0.31961220  0.65525683    -0.65900
O1829       O  0.61702698  0.35107533  0.71484430    -0.78200
C1830       C  0.60417807  0.25726788  0.71334054     0.85300
O1831       O  0.62606802  0.29139479  0.71681482    -0.65400
Ni1832     Ni  0.68704177  0.41828792  0.69072640     1.27400
Ni1833     Ni  0.67480476  0.34569118  0.66744639     1.26100
H1834       H  0.68661784  0.31304397  0.69041493     0.39800
C1835       C  0.98027990  0.00358761  0.79130400     0.46200
H1836       H  0.97824474  0.99732205  0.77732846    -0.02800
C1837       C  0.98122567  0.01116766  0.82482932     0.46200
H1838       H  0.98057098  0.01562798  0.83883116    -0.02800
C1839       C  0.00491628  0.48895803  0.80095061    -0.16500
C1840       C  0.99574561  0.04525813  0.79716269    -0.16300
C1841       C  0.94032245  0.48269624  0.79880621    -0.16700
C1842       C  0.00660364  0.49371499  0.81910186    -0.16600
C1843       C  0.99832876  0.04917158  0.81526764    -0.16200
C1844       C  0.94006746  0.48644362  0.81669592    -0.16500
C1845       C  0.64802497  0.33325646  0.90971159     0.46200
H1846       H  0.64370433  0.32824984  0.92370613    -0.02800
C1847       C  0.65058280  0.34251530  0.87628433     0.46200
H1848       H  0.65306595  0.34873108  0.86229521    -0.02800
C1849       C  0.68974160  0.35891368  0.90343985    -0.16500
C1850       C  0.63184984  0.29572210  0.89919977    -0.16300
C1851       C  0.62514270  0.35241830  0.90354251    -0.16700
C1852       C  0.69044077  0.36269778  0.88528210    -0.16600
C1853       C  0.63449466  0.30021544  0.88120454    -0.16200
C1854       C  0.62626597  0.35765345  0.88574597    -0.16500
C1855       C  0.85467929  0.17338405  0.15845851     0.46200
H1856       H  0.85091268  0.17309063  0.17266984    -0.02800
C1857       C  0.86101937  0.17636817  0.12480483     0.46200
H1858       H  0.86499226  0.17816843  0.11052274    -0.02800
C1859       C  0.87375673  0.15036909  0.15131117    -0.16500
C1860       C  0.81543371  0.15689340  0.14882209    -0.16300
C1861       C  0.87859426  0.21390339  0.15167630    -0.16700
C1862       C  0.87801867  0.15311925  0.13321164    -0.16600
C1863       C  0.81873782  0.15736164  0.13074844    -0.16200
C1864       C  0.88147176  0.21548106  0.13384779    -0.16500
C1865       C  0.52438641  0.50705587  0.20890250     0.46200
H1866       H  0.52136821  0.50669944  0.19449243    -0.02800
C1867       C  0.52889937  0.50575009  0.24270810     0.46200
H1868       H  0.53110041  0.50466240  0.25712570    -0.02800
C1869       C  0.56621549  0.02917962  0.21624378    -0.16500
C1870       C  0.50265836  0.02486517  0.21799687    -0.16300
C1871       C  0.50737358  0.46693140  0.21622570    -0.16700
C1872       C  0.56835917  0.02728237  0.23431514    -0.16600
C1873       C  0.50617543  0.02546534  0.23606346    -0.16200
C1874       C  0.50919893  0.46612918  0.23415845    -0.16500
O1875       O  0.79582157  0.07585064  0.36678608    -0.80200
O1876       O  0.87865601  0.21880389  0.31768841    -0.64800
O1877       O  0.85229599  0.14501389  0.35340939    -1.11400
C1878       C  0.80190004  0.21492558  0.38112620     1.06700
O1879       O  0.90116902  0.26515931  0.33703054    -0.78100
O1880       O  0.89947478  0.24799748  0.37073674    -0.65600
Ni1881     Ni  0.82658655  0.09314785  0.34620567     1.34900
C1882       C  0.89510524  0.22269555  0.38150320     0.85500
O1883       O  0.89551468  0.16352255  0.32308860    -0.78600
O1884       O  0.85525370  0.10206002  0.32497234    -0.88900
C1885       C  0.89594848  0.25367724  0.32126133     0.85000
O1886       O  0.78694176  0.09762297  0.33436320    -0.67100
O1887       O  0.82855339  0.24283327  0.37344199    -0.86400
C1888       C  0.79126489  0.11929852  0.32171449     0.85900
C1889       C  0.88430906  0.12972446  0.31848994     1.07400
H1890       H  0.81473768  0.19441657  0.34128587     0.39200
O1891       O  0.83728191  0.19889218  0.34796994    -1.09000
O1892       O  0.86569291  0.19051519  0.38152875    -0.65700
Ni1893     Ni  0.82258466  0.16254072  0.36598395     1.26300
O1894       O  0.82192607  0.15044812  0.32006816    -0.65900
O1895       O  0.79376396  0.18113117  0.37802952    -0.78200
C1896       C  0.79323349  0.09036675  0.38109904     0.85300
O1897       O  0.80728068  0.12534610  0.38336364    -0.65400
Ni1898     Ni  0.86368507  0.25093078  0.35494456     1.27400
Ni1899     Ni  0.86595255  0.18125048  0.33513278     1.26100
H1900       H  0.87502498  0.14992340  0.36004946     0.39800
O1901       O  0.54573828  0.10002937  0.99888536    -0.80200
O1902       O  0.00233677  0.46421904  0.05131970    -0.64800
O1903       O  0.53805517  0.03331204  0.01356782    -1.11400
C1904       C  0.91983296  0.46035912  0.98626453     1.06700
O1905       O  0.95898076  0.41353928  0.03680591    -0.78100
O1906       O  0.98786322  0.43141845  0.00441047    -0.65600
Ni1907     Ni  0.56325155  0.08571805  0.01968714     1.34900
C1908       C  0.50288988  0.45063241  0.99093599     0.85500
O1909       O  0.56962006  0.01878252  0.04297781    -0.78600
O1910       O  0.58670179  0.07947807  0.04088331    -0.88900
C1911       C  0.98016865  0.42910060  0.05020115     0.85000
O1912       O  0.52054938  0.08156472  0.03207297    -0.67100
O1913       O  0.92337783  0.43389665  0.99328155    -0.86400
C1914       C  0.00588988  0.06111393  0.04527279     0.85900
C1915       C  0.59100312  0.05287469  0.04727910     1.07400
H1916       H  0.95427661  0.48660661  0.02803997     0.39200
O1917       O  0.97082499  0.48060028  0.02131145    -1.09000
O1918       O  0.50150590  0.48083207  0.98772386    -0.65700
Ni1919     Ni  0.98946416  0.01391086  0.00189540     1.26300
O1920       O  0.00851289  0.03138430  0.04780307    -0.65900
O1921       O  0.94054334  0.49435453  0.99088341    -0.78200
C1922       C  0.52820334  0.08404386  0.98468891     0.85300
O1923       O  0.50887016  0.04859166  0.98312108    -0.65400
Ni1924     Ni  0.94422635  0.42803249  0.01538627     1.27400
Ni1925     Ni  0.52005099  0.49936599  0.03270004     1.26100
H1926       H  0.55528097  0.02820509  0.00679974     0.39800
C1927       C  0.66846487  0.05215968  0.25304024    -0.04700
C1928       C  0.66915569  0.07014353  0.26885846     0.09400
C1929       C  0.63827687  0.07557313  0.27306581    -0.02100
C1930       C  0.60700155  0.06395539  0.26134428    -0.00400
C1931       C  0.60456448  0.04380913  0.24564758    -0.04000
C1932       C  0.63616080  0.03824015  0.24165501     0.03000
C1933       C  0.70195377  0.08263526  0.28155731     0.09900
C1934       C  0.63855369  0.09286437  0.28979236     0.35800
C1935       C  0.63566425  0.01653497  0.22654091     0.39200
C1936       C  0.72817676  0.12113419  0.28375745    -0.04400
C1937       C  0.75659512  0.13339678  0.29710217     0.02800
C1938       C  0.76014658  0.10687011  0.30795156    -0.04000
C1939       C  0.73449633  0.06786697  0.30498264    -0.00200
C1940       C  0.70508093  0.05610009  0.29219108    -0.02700
C1941       C  0.72547209  0.14816406  0.27229154     0.36500
C1942       C  0.73864115  0.03917883  0.31449744     0.40100
C1943       C  0.78118074  0.17348779  0.29975518     0.39300
C1944       C  0.67750682  0.01647984  0.29006764     0.36200
C1945       C  0.70082331  0.04694749  0.24888572     0.36900
C1946       C  0.57929941  0.07569103  0.26553907     0.40100
N1947       N  0.80053191  0.20554974  0.30171631    -0.38000
N1948       N  0.72315380  0.16953195  0.26309560    -0.39500
N1949       N  0.74178257  0.01609657  0.32196368    -0.37300
N1950       N  0.65552732  0.48514983  0.28833128    -0.39700
N1951       N  0.63875149  0.10648038  0.30313290    -0.39500
N1952       N  0.55985549  0.08743653  0.27025495    -0.37100
N1953       N  0.63754218  0.00000181  0.21461402    -0.38100
N1954       N  0.72676039  0.04281884  0.24587772    -0.39800
C1955       C  0.93689360  0.37475718  0.25622840    -0.04700
C1956       C  0.96066309  0.36825664  0.26774767     0.09400
C1957       C  0.00042347  0.39178482  0.26733234    -0.02100
C1958       C  0.51634756  0.42258083  0.25589778    -0.00400
C1959       C  0.99246569  0.43074004  0.24482636    -0.04000
C1960       C  0.95238338  0.40633212  0.24526258     0.03000
C1961       C  0.94341327  0.33824912  0.28121211     0.09900
C1962       C  0.52495477  0.38453369  0.27911590     0.35800
C1963       C  0.92570206  0.41496745  0.23627700     0.39200
C1964       C  0.94131269  0.30297789  0.27860152    -0.04400
C1965       C  0.92649042  0.27538499  0.29169096     0.02800
C1966       C  0.91143821  0.28209909  0.30709589    -0.04000
C1967       C  0.91133487  0.31675066  0.30906485    -0.00200
C1968       C  0.92830490  0.34499026  0.29647600    -0.02700
C1969       C  0.95375218  0.29488113  0.26224989     0.36500
C1970       C  0.89248482  0.32319667  0.32370609     0.40100
C1971       C  0.92815073  0.24080531  0.28945991     0.39300
C1972       C  0.93001081  0.38104884  0.29932364     0.36200
C1973       C  0.89598222  0.34939916  0.25615820     0.36900
C1974       C  0.55735404  0.44566073  0.25584674     0.40100
N1975       N  0.92976677  0.21336231  0.28766960    -0.38000
N1976       N  0.46243363  0.28779577  0.24893558    -0.39500
N1977       N  0.87735271  0.32844612  0.33528016    -0.37300
N1978       N  0.93097642  0.40948416  0.30203716    -0.39700
N1979       N  0.54439049  0.37866332  0.28849034    -0.39500
N1980       N  0.59029535  0.46248871  0.25650699    -0.37100
N1981       N  0.90150486  0.41888560  0.22993435    -0.38100
N1982       N  0.86341011  0.32918321  0.25606300    -0.39800
C1983       C  0.95590329  0.04456508  0.27413427    -0.04700
C1984       C  0.96136333  0.08051249  0.27019115     0.09400
C1985       C  0.98434055  0.10016398  0.25610784    -0.02100
C1986       C  0.99967800  0.08290401  0.24518294    -0.00400
C1987       C  0.99201442  0.04534160  0.24825681    -0.04000
C1988       C  0.97132468  0.02719249  0.26341875     0.03000
C1989       C  0.94319348  0.09763228  0.28127844     0.09900
C1990       C  0.99353318  0.13889827  0.25343476     0.35800
C1991       C  0.46486745  0.99018457  0.26826044     0.39200
C1992       C  0.96327103  0.12059865  0.29582402    -0.04400
C1993       C  0.94449684  0.13257002  0.30762199     0.02800
C1994       C  0.90545507  0.12152863  0.30493599    -0.04000
C1995       C  0.88587867  0.09993943  0.28990830    -0.00200
C1996       C  0.90469994  0.08800015  0.27814708    -0.02700
C1997       C  0.00281834  0.13042446  0.29902548     0.36500
C1998       C  0.84626768  0.08983342  0.28655088     0.40100
C1999       C  0.96471640  0.15414755  0.32313085     0.39300
C2000       C  0.88411543  0.06465688  0.26311220     0.36200
C2001       C  0.93469337  0.02566532  0.28954617     0.36900
C2002       C  0.02558151  0.10536985  0.23172428     0.40100
N2003       N  0.98078060  0.17118316  0.33555867    -0.38000
N2004       N  0.53454687  0.13848959  0.30154260    -0.39500
N2005       N  0.81469606  0.08170867  0.28378375    -0.37300
N2006       N  0.86770944  0.54600376  0.25119288    -0.39700
N2007       N  0.00121957  0.16997596  0.25159267    -0.39500
N2008       N  0.04589388  0.12437828  0.22109818    -0.37100
N2009       N  0.45956934  0.96115006  0.27297794    -0.38100
N2010       N  0.91797153  0.01086354  0.30189893    -0.39800
C2011       C  0.96679055  0.34163727  0.07369441    -0.04700
C2012       C  0.96097749  0.34942433  0.09100685     0.09400
C2013       C  0.96785194  0.38591193  0.09555624    -0.02100
C2014       C  0.97644300  0.41320805  0.08247912    -0.00400
C2015       C  0.97859633  0.40412822  0.06479028    -0.04000
C2016       C  0.97656373  0.36917330  0.06076898     0.03000
C2017       C  0.94237476  0.31775983  0.10361891     0.09900
C2018       C  0.96440888  0.39470457  0.11361442     0.35800
C2019       C  0.98524914  0.36164554  0.04334543     0.39200
C2020       C  0.96198410  0.29993004  0.11076050    -0.04400
C2021       C  0.94233333  0.26697069  0.12074188     0.02800
C2022       C  0.90287417  0.25170172  0.12394771    -0.04000
C2023       C  0.88416412  0.27130301  0.11749577    -0.00200
C2024       C  0.90351245  0.30345364  0.10713072    -0.02700
C2025       C  0.00230671  0.31512781  0.10743127     0.36500
C2026       C  0.84454098  0.25879081  0.12062805     0.40100
C2027       C  0.96343150  0.24926842  0.12751212     0.39300
C2028       C  0.88276753  0.32095943  0.09928550     0.36200
C2029       C  0.96078808  0.30455086  0.06896339     0.36900
C2030       C  0.98169431  0.44994050  0.08726656     0.40100
N2031       N  0.98253088  0.23714397  0.13252481    -0.38000
N2032       N  0.53450543  0.32732620  0.10476247    -0.39500
N2033       N  0.81321404  0.25202803  0.12190566    -0.37300
N2034       N  0.86622813  0.33478577  0.09299587    -0.39700
N2035       N  0.96163004  0.40167982  0.12802123    -0.39500
N2036       N  0.98621286  0.47928008  0.09130294    -0.37100
N2037       N  0.99262272  0.35572310  0.02953520    -0.38100
N2038       N  0.95600716  0.27495547  0.06526036    -0.39800
C2039       C  0.65403813  0.09637414  0.08759023    -0.04700
C2040       C  0.68374041  0.08806791  0.08459133     0.09400
C2041       C  0.68162307  0.06564882  0.07005523    -0.02100
C2042       C  0.65038225  0.05259625  0.05816892    -0.00400
C2043       C  0.62146717  0.06242850  0.06070826    -0.04000
C2044       C  0.62278825  0.08332308  0.07575858     0.03000
C2045       C  0.71856369  0.10503108  0.09612965     0.09900
C2046       C  0.71242571  0.05733622  0.06703647     0.35800
C2047       C  0.59160597  0.09078549  0.07928033     0.39200
C2048       C  0.72205287  0.08491521  0.11025483    -0.04400
C2049       C  0.75513302  0.10113824  0.12111014     0.02800
C2050       C  0.78522449  0.13822576  0.11798978    -0.04000
C2051       C  0.78285722  0.15617771  0.10239068    -0.00200
C2052       C  0.74900681  0.14039273  0.09210844    -0.02700
C2053       C  0.69194717  0.04680201  0.11311222     0.36500
C2054       C  0.81527946  0.18904915  0.09561627     0.40100
C2055       C  0.75933995  0.07749433  0.13409238     0.39300
C2056       C  0.74549160  0.16036726  0.07708107     0.36200
C2057       C  0.65628488  0.11935072  0.10258097     0.36900
C2058       C  0.64885014  0.03035222  0.04300508     0.40100
N2059       N  0.76115259  0.05727484  0.14418351    -0.38000
N2060       N  0.66796695  0.01626846  0.11508704    -0.39500
N2061       N  0.84038563  0.21400114  0.08888663    -0.37300
N2062       N  0.74250236  0.17623655  0.06514855    -0.39700
N2063       N  0.73718155  0.05096193  0.06468578    -0.39500
N2064       N  0.64769818  0.01251857  0.03095294    -0.37100
N2065       N  0.56669723  0.09657452  0.08223905    -0.38100
N2066       N  0.65811773  0.13786703  0.11446779    -0.39800
C2067       C  0.94100080  0.05834437  0.08232343    -0.04700
C2068       C  0.95284846  0.09682482  0.08489350     0.09400
C2069       C  0.98167726  0.12359179  0.07439379    -0.02100
C2070       C  0.99909180  0.11215704  0.06159974    -0.00400
C2071       C  0.98674293  0.07331572  0.05861392    -0.04000
C2072       C  0.95679156  0.04652592  0.06889681     0.03000
C2073       C  0.93323937  0.10917983  0.09789170     0.09900
C2074       C  0.49341059  0.16311730  0.07681587     0.35800
C2075       C  0.94027687  0.00665721  0.06510505     0.39200
C2076       C  0.95142731  0.12678768  0.11376914    -0.04400
C2077       C  0.93375775  0.14046119  0.12548148     0.02800
C2078       C  0.89682235  0.13611352  0.12161874    -0.04000
C2079       C  0.87824448  0.11639369  0.10579592    -0.00200
C2080       C  0.89665646  0.10395019  0.09399962    -0.02700
C2081       C  0.98889506  0.13113231  0.11781351     0.36500
C2082       C  0.83894410  0.10550085  0.10157202     0.40100
C2083       C  0.95459317  0.15880022  0.14133811     0.39300
C2084       C  0.87781373  0.08556440  0.07758792     0.36200
C2085       C  0.91232823  0.03085320  0.09356299     0.36900
C2086       C  0.53045028  0.14091109  0.05194880     0.40100
N2087       N  0.97273682  0.17265564  0.15384558    -0.38000
N2088       N  0.01883159  0.13442655  0.12065453    -0.39500
N2089       N  0.80778973  0.09406798  0.09665847    -0.37300
N2090       N  0.86281339  0.07082353  0.06455426    -0.39700
N2091       N  0.50253004  0.19459347  0.07876837    -0.39500
N2092       N  0.55526777  0.16404776  0.04424030    -0.37100
N2093       N  0.92634163  0.47470356  0.06199592    -0.38100
N2094       N  0.88957596  0.00905691  0.10261141    -0.39800
C2095       C  0.92234165  0.12147185  0.18739157    -0.04700
C2096       C  0.92014408  0.08894717  0.17988996     0.09400
C2097       C  0.89687198  0.07259858  0.16496914    -0.02100
C2098       C  0.87810618  0.09037310  0.15679341    -0.00400
C2099       C  0.88466301  0.12630888  0.16276167    -0.04000
C2100       C  0.90324239  0.13908130  0.17944141     0.03000
C2101       C  0.93994210  0.07030194  0.18872257     0.09900
C2102       C  0.89228586  0.03732623  0.15808359     0.35800
C2103       C  0.89998249  0.16719193  0.18976376     0.39200
C2104       C  0.92239511  0.04562651  0.20253990    -0.04400
C2105       C  0.94226021  0.03062641  0.21207593     0.02800
C2106       C  0.98011440  0.03951823  0.20754914    -0.04000
C2107       C  0.49670606  0.06332882  0.19301867    -0.00200
C2108       C  0.97689289  0.07897846  0.18393239    -0.02700
C2109       C  0.88359999  0.03592097  0.20695684     0.36500
C2110       C  0.53493346  0.07412426  0.18738480     0.40100
C2111       C  0.92239540  0.50573619  0.22626081     0.39300
C2112       C  0.49563745  0.10578633  0.17020681     0.36200
C2113       C  0.94460697  0.13694714  0.20341321     0.36900
C2114       C  0.84975446  0.06965687  0.14326320     0.40100
N2115       N  0.90475305  0.48698822  0.23760579    -0.38000
N2116       N  0.85264008  0.02824061  0.21031865    -0.39500
N2117       N  0.56491538  0.08414167  0.18179311    -0.37300
N2118       N  0.51161877  0.12729267  0.15942766    -0.39700
N2119       N  0.88880877  0.00922943  0.15265516    -0.39500
N2120       N  0.82736015  0.05165220  0.13260948    -0.37100
N2121       N  0.89710533  0.18834639  0.19893688    -0.38100
N2122       N  0.96251743  0.14939091  0.21612694    -0.39800
C2123       C  0.66398752  0.10753069  0.20151679    -0.04700
C2124       C  0.67066015  0.09077502  0.18686795     0.09400
C2125       C  0.64150755  0.05597538  0.18048763    -0.02100
C2126       C  0.60656061  0.03677113  0.18928505    -0.00400
C2127       C  0.60045959  0.05213882  0.20488703    -0.04000
C2128       C  0.62858347  0.08925997  0.20997618     0.03000
C2129       C  0.70840432  0.10978508  0.17794573     0.09900
C2130       C  0.64820186  0.03931292  0.16507508     0.35800
C2131       C  0.62113965  0.11003245  0.22333131     0.39200
C2132       C  0.73693346  0.10059967  0.18238285    -0.04400
C2133       C  0.77160261  0.11630580  0.17326084     0.02800
C2134       C  0.77821857  0.14121349  0.15898947    -0.04000
C2135       C  0.74857935  0.15003390  0.15469474    -0.00200
C2136       C  0.71452355  0.13493993  0.16432813    -0.02700
C2137       C  0.72975250  0.07335227  0.19601154     0.36500
C2138       C  0.75057945  0.17291777  0.13997465     0.40100
C2139       C  0.79799300  0.10296679  0.17805140     0.39300
C2140       C  0.68490567  0.14461432  0.16001006     0.36200
C2141       C  0.69413706  0.14332804  0.20815606     0.36900
C2142       C  0.57763196  0.00127690  0.18194525     0.40100
N2143       N  0.81623426  0.08975658  0.18295021    -0.38000
N2144       N  0.72414375  0.05130581  0.20667860    -0.39500
N2145       N  0.74787190  0.18924971  0.12819568    -0.37300
N2146       N  0.66128716  0.15231827  0.15666638    -0.39700
N2147       N  0.65376697  0.02599489  0.15286099    -0.39500
N2148       N  0.55520672  0.97370023  0.17515329    -0.37100
N2149       N  0.61683044  0.12795268  0.23390261    -0.38100
N2150       N  0.71835181  0.17168300  0.21353709    -0.39800
C2151       C  0.99226456  0.38064901  0.18956130    -0.04700
C2152       C  0.95197775  0.36103670  0.18717051     0.09400
C2153       C  0.93180346  0.37950048  0.19290780    -0.02100
C2154       C  0.95210160  0.41745898  0.19823282    -0.00400
C2155       C  0.98977208  0.43227409  0.20477976    -0.04000
C2156       C  0.50932872  0.41225542  0.20092166     0.03000
C2157       C  0.93149832  0.32176310  0.17913489     0.09900
C2158       C  0.89084510  0.35937065  0.19511243     0.35800
C2159       C  0.54607123  0.42255100  0.20888038     0.39200
C2160       C  0.94255314  0.29446728  0.18349266    -0.04400
C2161       C  0.92869006  0.26123222  0.17328233     0.02800
C2162       C  0.89484696  0.24871982  0.16307989    -0.04000
C2163       C  0.87838429  0.27233645  0.16237622    -0.00200
C2164       C  0.90020351  0.31042461  0.16721686    -0.02700
C2165       C  0.96730070  0.29968545  0.19853706     0.36500
C2166       C  0.83765184  0.25656656  0.16015013     0.40100
C2167       C  0.95121265  0.24240728  0.17282875     0.39300
C2168       C  0.89128022  0.33725798  0.15891274     0.36200
C2169       C  0.51629578  0.36949070  0.18011094     0.36900
C2170       C  0.93439764  0.44077192  0.19591157     0.40100
N2171       N  0.97132091  0.22951368  0.17315768    -0.38000
N2172       N  0.98707715  0.30387181  0.21052199    -0.39500
N2173       N  0.80494436  0.24466298  0.15947901    -0.37300
N2174       N  0.88413006  0.35855083  0.15214046    -0.39700
N2175       N  0.85821161  0.34333874  0.19710423    -0.39500
N2176       N  0.91904472  0.45808260  0.19314080    -0.37100
N2177       N  0.57465321  0.42839894  0.21544430    -0.38100
N2178       N  0.53548170  0.36068005  0.17250479    -0.39800
C2179       C  0.79189987  0.42805620  0.92084586    -0.04700
C2180       C  0.79585782  0.40876517  0.93518815     0.09400
C2181       C  0.76421231  0.37562281  0.94061480    -0.02100
C2182       C  0.72848844  0.36212040  0.93196904    -0.00400
C2183       C  0.72521010  0.37788563  0.91569843    -0.04000
C2184       C  0.75644741  0.41388996  0.91178882     0.03000
C2185       C  0.83098204  0.42636293  0.94664632     0.09900
C2186       C  0.76806181  0.35630835  0.95585603     0.35800
C2187       C  0.75044376  0.44086967  0.90192221     0.39200
C2188       C  0.83459553  0.45218546  0.95992484    -0.04400
C2189       C  0.86445202  0.46442781  0.97254626     0.02800
C2190       C  0.89086287  0.45082336  0.97196834    -0.04000
C2191       C  0.88844411  0.42671458  0.95801364    -0.00200
C2192       C  0.85839454  0.41432042  0.94549024    -0.02700
C2193       C  0.80655612  0.46492399  0.96099951     0.36500
C2194       C  0.91716367  0.41505364  0.95627329     0.40100
C2195       C  0.86670454  0.48947278  0.98662958     0.39300
C2196       C  0.85488061  0.38825611  0.93166805     0.36200
C2197       C  0.82404372  0.46366076  0.91596137     0.36900
C2198       C  0.69589087  0.33804540  0.94232326     0.40100
N2199       N  0.86854978  0.50944611  0.99787086    -0.38000
N2200       N  0.78418267  0.47507026  0.96183227    -0.39500
N2201       N  0.93995182  0.40567054  0.95460057    -0.37300
N2202       N  0.85187240  0.36732634  0.92067000    -0.39700
N2203       N  0.77123653  0.34085768  0.96791570    -0.39500
N2204       N  0.67123258  0.31964036  0.95151843    -0.37100
N2205       N  0.74805742  0.46476712  0.89486525    -0.38100
N2206       N  0.84967890  0.49203963  0.91209725    -0.39800
C2207       C  0.61290779  0.21701459  0.93180937    -0.04700
C2208       C  0.57316980  0.19396641  0.93004406     0.09400
C2209       C  0.55300672  0.20176573  0.91696987    -0.02100
C2210       C  0.57231127  0.23340863  0.90613744    -0.00400
C2211       C  0.61201555  0.25849367  0.90865150    -0.04000
C2212       C  0.63226829  0.24868104  0.92111170     0.03000
C2213       C  0.55302336  0.16249730  0.94262376     0.09900
C2214       C  0.51211854  0.17750524  0.91494815     0.35800
C2215       C  0.67347863  0.26821705  0.92198073     0.39200
C2216       C  0.54328426  0.17030267  0.95913558    -0.04400
C2217       C  0.53253809  0.14358779  0.97255632     0.02800
C2218       C  0.53139563  0.10861458  0.96955694    -0.04000
C2219       C  0.53644695  0.09915357  0.95230759    -0.00200
C2220       C  0.54774382  0.12625992  0.93897511    -0.02700
C2221       C  0.54544246  0.20644162  0.96239160     0.36500
C2222       C  0.03093882  0.06205648  0.94820102     0.40100
C2223       C  0.52233181  0.15215579  0.98942293     0.39300
C2224       C  0.55501995  0.11717564  0.92162386     0.36200
C2225       C  0.63395559  0.20805607  0.94485755     0.36900
C2226       C  0.55094567  0.23829074  0.89196836     0.40100
N2227       N  0.51411349  0.15900580  0.00285083    -0.38000
N2228       N  0.54708917  0.23527101  0.96485588    -0.39500
N2229       N  0.02627280  0.03241669  0.94468299    -0.37300
N2230       N  0.05984865  0.10920725  0.90776225    -0.39700
N2231       N  0.47947955  0.15822808  0.91339730    -0.39500
N2232       N  0.53236392  0.23932886  0.88049137    -0.37100
N2233       N  0.70631358  0.28132679  0.92309909    -0.38100
N2234       N  0.65058070  0.20083564  0.95528969    -0.39800
C2235       C  0.60674789  0.40033617  0.94306667    -0.04700
C2236       C  0.56888504  0.39234673  0.93984309     0.09400
C2237       C  0.54846081  0.36913757  0.92540628    -0.02100
C2238       C  0.56585030  0.35399283  0.91441435    -0.00400
C2239       C  0.60523428  0.36526157  0.91642511    -0.04000
C2240       C  0.62535365  0.38853555  0.93111403     0.03000
C2241       C  0.55053117  0.40724004  0.95228359     0.09900
C2242       C  0.50918756  0.36021386  0.92202606     0.35800
C2243       C  0.66589927  0.40334258  0.93390380     0.39200
C2244       C  0.56449588  0.44638734  0.95412926    -0.04400
C2245       C  0.55067361  0.46068809  0.96736327     0.02800
C2246       C  0.52040469  0.43590829  0.97802882    -0.04000
C2247       C  0.50585954  0.39649585  0.97580454    -0.00200
C2248       C  0.52171894  0.38251301  0.96343766    -0.02700
C2249       C  0.59385435  0.47213119  0.94259759     0.36500
C2250       C  0.97356727  0.36973639  0.98570647     0.40100
C2251       C  0.56933077  0.00103676  0.97055039     0.39300
C2252       C  0.00892332  0.34254053  0.96249104     0.36200
C2253       C  0.62667389  0.42074483  0.95894326     0.36900
C2254       C  0.54189909  0.32458235  0.90209299     0.40100
N2255       N  0.58477230  0.03313349  0.97319187    -0.38000
N2256       N  0.61741759  0.49268433  0.93347539    -0.39500
N2257       N  0.94776999  0.34821341  0.99351225    -0.37300
N2258       N  0.99871300  0.31064650  0.96169510    -0.39700
N2259       N  0.47778994  0.35286070  0.91936718    -0.39500
N2260       N  0.52094465  0.30061670  0.89284907    -0.37100
N2261       N  0.69818598  0.41815086  0.93731262    -0.38100
N2262       N  0.64237906  0.43693622  0.97160448    -0.39800
C2263       C  0.56528776  0.38368870  0.85490002    -0.04700
C2264       C  0.57785192  0.42135081  0.85959603     0.09400
C2265       C  0.60573178  0.43821047  0.87299396    -0.02100
C2266       C  0.62146205  0.41776111  0.88145204    -0.00400
C2267       C  0.60943841  0.37970955  0.87665602    -0.04000
C2268       C  0.58060935  0.36291797  0.86339260     0.03000
C2269       C  0.56216477  0.44358973  0.85022109     0.09900
C2270       C  0.61874823  0.47714806  0.87785632     0.35800
C2271       C  0.56376936  0.32350873  0.85901470     0.39200
C2272       C  0.53339605  0.44902366  0.85769552    -0.04400
C2273       C  0.52021363  0.47168823  0.84928474     0.02800
C2274       C  0.53104184  0.48408410  0.83179149    -0.04000
C2275       C  0.56507851  0.48463473  0.82628788    -0.00200
C2276       C  0.57912407  0.46288407  0.83486595    -0.02700
C2277       C  0.51756059  0.43150001  0.87424131     0.36500
C2278       C  0.58996823  0.51242627  0.81412078     0.40100
C2279       C  0.00135212  0.48637261  0.86021225     0.39300
C2280       C  0.61174412  0.46092967  0.82813473     0.36200
C2281       C  0.53570363  0.36593682  0.84146229     0.36900
C2282       C  0.65150497  0.43741901  0.89441989     0.40100
N2283       N  0.98718962  0.49806270  0.86963672    -0.38000
N2284       N  0.50474618  0.41730384  0.88736449    -0.39500
N2285       N  0.61212094  0.53457111  0.80500175    -0.37300
N2286       N  0.63771892  0.45905989  0.82293816    -0.39700
N2287       N  0.62921407  0.00827974  0.88160325    -0.39500
N2288       N  0.67527031  0.45506820  0.90460580    -0.37100
N2289       N  0.54744543  0.29224054  0.85476211    -0.38100
N2290       N  0.01218957  0.35141879  0.83078497    -0.39800
C2291       C  0.60126918  0.19942177  0.86514021    -0.04700
C2292       C  0.57818451  0.19671380  0.85060302     0.09400
C2293       C  0.58245797  0.23018495  0.84321637    -0.02100
C2294       C  0.60641872  0.26547737  0.85141556    -0.00400
C2295       C  0.62317878  0.26729437  0.86819715    -0.04000
C2296       C  0.62544288  0.23467996  0.87306784     0.03000
C2297       C  0.55639150  0.15953609  0.84113535     0.09900
C2298       C  0.56333906  0.22864867  0.82678337     0.35800
C2299       C  0.65760039  0.23754896  0.88307279     0.39200
C2300       C  0.51995022  0.13230947  0.84655556    -0.04400
C2301       C  0.50153712  0.09586078  0.83878528     0.02800
C2302       C  0.51921349  0.08640837  0.82514626    -0.04000
C2303       C  0.55693516  0.11340435  0.82072588    -0.00200
C2304       C  0.57484623  0.14978310  0.82830408    -0.02700
C2305       C  0.50129712  0.14202676  0.86010312     0.36500
C2306       C  0.57947544  0.10373881  0.80952121     0.40100
C2307       C  0.96400255  0.06898700  0.84462970     0.39300
C2308       C  0.61331888  0.17710984  0.82342009     0.36200
C2309       C  0.60252681  0.16610818  0.87101913     0.36900
C2310       C  0.61790515  0.29873850  0.84100479     0.40100
N2311       N  0.93388978  0.04795022  0.84941331    -0.38000
N2312       N  0.48625141  0.14973442  0.87086482    -0.39500
N2313       N  0.60048065  0.09891213  0.80119699    -0.37300
N2314       N  0.64399072  0.19900801  0.81967413    -0.39700
N2315       N  0.04947797  0.22862823  0.81345454    -0.39500
N2316       N  0.62678734  0.32439324  0.83202337    -0.37100
N2317       N  0.68252138  0.23567426  0.88996831    -0.38100
N2318       N  0.60387867  0.13960298  0.87542360    -0.39800
C2319       C  0.86512771  0.43649036  0.85215080    -0.04700
C2320       C  0.83228651  0.43673895  0.84508951     0.09400
C2321       C  0.83627915  0.45539254  0.82903622    -0.02100
C2322       C  0.87274409  0.47676262  0.82180685    -0.00400
C2323       C  0.90353542  0.47079547  0.82705855    -0.04000
C2324       C  0.89794983  0.44819569  0.84191799     0.03000
C2325       C  0.79418104  0.41675224  0.85426314     0.09900
C2326       C  0.80321044  0.45225013  0.81950084     0.35800
C2327       C  0.92145790  0.43094969  0.84525206     0.39200
C2328       C  0.77129957  0.43403968  0.85698423    -0.04400
C2329       C  0.73469810  0.41334566  0.86423813     0.02800
C2330       C  0.72568394  0.38077958  0.87411084    -0.04000
C2331       C  0.74956314  0.36446640  0.87221953    -0.00200
C2332       C  0.78029506  0.37977941  0.86053768    -0.02700
C2333       C  0.78563313  0.47353152  0.85333472     0.36500
C2334       C  0.74401051  0.33265870  0.88244089     0.40100
C2335       C  0.70733312  0.42642665  0.86142749     0.39300
C2336       C  0.79668174  0.35685610  0.85462305     0.36200
C2337       C  0.86550840  0.42408323  0.86988895     0.36900
C2338       C  0.87814241  0.50682451  0.81023972     0.40100
N2339       N  0.68664834  0.43786616  0.85809134    -0.38000
N2340       N  0.79682751  0.00503315  0.85047301    -0.39500
N2341       N  0.74262117  0.30837063  0.89069824    -0.37300
N2342       N  0.80954645  0.33849571  0.84978183    -0.39700
N2343       N  0.77705489  0.45017859  0.81185759    -0.39500
N2344       N  0.87997142  0.53089359  0.80161384    -0.37100
N2345       N  0.93731983  0.41413152  0.84807765    -0.38100
N2346       N  0.86585523  0.41432842  0.88405814    -0.39800
C2347       C  0.77153294  0.38965143  0.75613567    -0.04700
C2348       C  0.80926465  0.40433758  0.75030890     0.09400
C2349       C  0.81603342  0.40699438  0.73213534    -0.00600
C2350       C  0.78606977  0.39915639  0.72000881    -0.00400
C2351       C  0.74882579  0.38736895  0.72593247    -0.04000
C2352       C  0.74131602  0.38062339  0.74399002     0.03000
C2353       C  0.84232376  0.42343163  0.76302467     0.09900
C2354       C  0.85443810  0.41990681  0.72601811     0.35800
C2355       C  0.70279673  0.36618143  0.75028993     0.39200
C2356       C  0.85168299  0.40329154  0.77532111    -0.04400
C2357       C  0.88229781  0.42259371  0.78751515     0.02800
C2358       C  0.90569276  0.46215621  0.78675775    -0.04000
C2359       C  0.89673909  0.48176710  0.77372171    -0.00200
C2360       C  0.86430877  0.46276305  0.76268484    -0.02700
C2361       C  0.83020375  0.36259278  0.77517447     0.36500
C2362       C  0.91851736  0.02193085  0.77154798     0.40100
C2363       C  0.88944753  0.40112169  0.80061831     0.39300
C2364       C  0.85314678  0.48401917  0.75090260     0.36200
C2365       C  0.76390003  0.38531816  0.77469184     0.36900
C2366       C  0.79363829  0.40330809  0.70143870     0.40100
N2367       N  0.89340947  0.38261571  0.81098333    -0.38000
N2368       N  0.81308719  0.33010323  0.77500857    -0.39500
N2369       N  0.93144936  0.05340169  0.76824095    -0.37300
N2370       N  0.84439058  0.50092626  0.74152020    -0.39700
N2371       N  0.88518614  0.93070051  0.72123666    -0.39500
N2372       N  0.79969282  0.40668126  0.68662545    -0.37100
N2373       N  0.67208438  0.35448426  0.75532629    -0.38100
N2374       N  0.75751031  0.38128524  0.78945994    -0.39800
C2375       C  0.51233306  0.14077799  0.77955345    -0.04700
C2376       C  0.53444349  0.14435987  0.76494266     0.09400
C2377       C  0.53673036  0.11308731  0.75873423    -0.02100
C2378       C  0.51764426  0.07872758  0.76736309    -0.00400
C2379       C  0.50436735  0.07754403  0.78465983    -0.04000
C2380       C  0.49737766  0.10763389  0.78946658     0.03000
C2381       C  0.55131361  0.17896698  0.75435347     0.09900
C2382       C  0.55670150  0.11558684  0.74266884     0.35800
C2383       C  0.46896330  0.10240936  0.80220708     0.39200
C2384       C  0.59123747  0.20201399  0.75460329    -0.04400
C2385       C  0.60857571  0.22815553  0.74125500     0.02800
C2386       C  0.58575227  0.23211435  0.72802785    -0.04000
C2387       C  0.54569169  0.21234507  0.72906127    -0.00200
C2388       C  0.52840780  0.18477007  0.74185618    -0.02700
C2389       C  0.61445710  0.19705255  0.76799843     0.36500
C2390       C  0.52239905  0.22152679  0.71752305     0.40100
C2391       C  0.64991081  0.24965932  0.74069120     0.39300
C2392       C  0.98741169  0.16118111  0.74166209     0.36200
C2393       C  0.50232776  0.16982407  0.78339613     0.36900
C2394       C  0.00498208  0.04561572  0.75642564     0.40100
N2395       N  0.68285413  0.26677609  0.74021999    -0.38000
N2396       N  0.63294435  0.19298033  0.77865262    -0.39500
N2397       N  0.50362125  0.22939736  0.70872364    -0.37300
N2398       N  0.95461247  0.14221175  0.74151521    -0.39700
N2399       N  0.57284568  0.11776869  0.72995357    -0.39500
N2400       N  0.99490751  0.02024911  0.74687794    -0.37100
N2401       N  0.44608004  0.10002280  0.81190101    -0.38100
N2402       N  0.49321755  0.19235782  0.78597734    -0.39800
C2403       C  0.53195203  0.41547463  0.78360803    -0.04700
C2404       C  0.55558926  0.43467840  0.76955400     0.09400
C2405       C  0.56252625  0.47114430  0.76578101    -0.02100
C2406       C  0.54790155  0.48925328  0.77647741    -0.00400
C2407       C  0.52299580  0.47008836  0.79040017    -0.04000
C2408       C  0.51478137  0.43252617  0.79362251     0.03000
C2409       C  0.57369433  0.41724343  0.75845909     0.09900
C2410       C  0.58561962  0.49051071  0.75084164     0.35800
C2411       C  0.48899154  0.41110127  0.80726355     0.39200
C2412       C  0.55198397  0.39066721  0.74528001    -0.04400
C2413       C  0.57000741  0.37865753  0.73304592     0.02800
C2414       C  0.61028413  0.39457338  0.73333258    -0.04000
C2415       C  0.63188813  0.42049911  0.74684093    -0.00200
C2416       C  0.61359021  0.43121621  0.75949521    -0.02700
C2417       C  0.51133011  0.37753741  0.74362539     0.36500
C2418       C  0.67307797  0.43647653  0.74772669     0.40100
C2419       C  0.54705914  0.35135446  0.71959764     0.39300
C2420       C  0.63609571  0.45810742  0.77316063     0.36200
C2421       C  0.52557705  0.37815166  0.78771684     0.36900
C2422       C  0.56327530  0.02886181  0.77385116     0.40100
N2423       N  0.52870634  0.32942012  0.70893454    -0.38000
N2424       N  0.97883517  0.36701264  0.74231131    -0.39500
N2425       N  0.70594813  0.44943398  0.74841332    -0.37300
N2426       N  0.65426840  0.97947654  0.78398131    -0.39700
N2427       N  0.60404467  0.50587428  0.73897647    -0.39500
N2428       N  0.57915608  0.06041526  0.77049425    -0.37100
N2429       N  0.46894966  0.39325727  0.81821237    -0.38100
N2430       N  0.52083345  0.34839344  0.79081323    -0.39800
C2431       C  0.72006035  0.20968205  0.40816511    -0.04700
C2432       C  0.73983237  0.24078907  0.41962255     0.09400
C2433       C  0.78002507  0.26117227  0.41940625    -0.02100
C2434       C  0.80006604  0.25323342  0.40662905    -0.00400
C2435       C  0.78032847  0.22269425  0.39474554    -0.04000
C2436       C  0.74028657  0.19991790  0.39614127     0.03000
C2437       C  0.71838184  0.25603589  0.42961355     0.09900
C2438       C  0.80118892  0.29068724  0.43223631     0.35800
C2439       C  0.71942117  0.16743573  0.38471784     0.39200
C2440       C  0.69739457  0.23801543  0.44446974    -0.04400
C2441       C  0.67702568  0.25301667  0.45337024     0.02800
C2442       C  0.68154684  0.28889121  0.44896456    -0.04000
C2443       C  0.69626573  0.30228674  0.43198748    -0.00200
C2444       C  0.71589946  0.28687907  0.42287853    -0.02700
C2445       C  0.69712692  0.20428938  0.45072506     0.36500
C2446       C  0.68843299  0.32844994  0.42237613     0.40100
C2447       C  0.64888562  0.22949791  0.46581183     0.39300
C2448       C  0.73313759  0.30240764  0.40619514     0.36200
C2449       C  0.67869296  0.18873257  0.40824152     0.36900
C2450       C  0.84118666  0.27695070  0.40580860     0.40100
N2451       N  0.62629735  0.20895781  0.47528923    -0.38000
N2452       N  0.69705290  0.17746595  0.45575413    -0.39500
N2453       N  0.68239889  0.34861111  0.41389890    -0.37300
N2454       N  0.74683884  0.31469574  0.39291877    -0.39700
N2455       N  0.81967596  0.31406851  0.44229931    -0.39500
N2456       N  0.87388294  0.29613091  0.40511938    -0.37100
N2457       N  0.70266638  0.14130070  0.37573858    -0.38100
N2458       N  0.64569606  0.17214620  0.40835431    -0.39800
C2459       C  0.99229818  0.25064206  0.40216203    -0.04700
C2460       C  0.48530544  0.25271613  0.42008882     0.09400
C2461       C  0.94784243  0.24198435  0.42539480    -0.02100
C2462       C  0.91795534  0.23053095  0.41281127    -0.00400
C2463       C  0.92563959  0.23118940  0.39480654    -0.04000
C2464       C  0.96279136  0.24073869  0.38953828     0.03000
C2465       C  0.51834461  0.27081873  0.43286268     0.09900
C2466       C  0.94022531  0.24377904  0.44374250     0.35800
C2467       C  0.97069919  0.24051972  0.37109980     0.39200
C2468       C  0.54438646  0.30930470  0.43132341    -0.04400
C2469       C  0.57799371  0.32626828  0.44175599     0.02800
C2470       C  0.58425512  0.30603854  0.45540781    -0.04000
C2471       C  0.55688751  0.26755051  0.45734931    -0.00200
C2472       C  0.52465968  0.24993583  0.44589421    -0.02700
C2473       C  0.53641434  0.33164596  0.41883785     0.36500
C2474       C  0.56190321  0.24516606  0.47068038     0.40100
C2475       C  0.60541330  0.36478417  0.43799801     0.39300
C2476       C  0.99829682  0.21007400  0.44720089     0.36200
C2477       C  0.53017262  0.25924149  0.39670849     0.36900
C2478       C  0.87956651  0.21942755  0.41840426     0.40100
N2479       N  0.62573901  0.39515071  0.43370290    -0.38000
N2480       N  0.52991339  0.34932416  0.40891660    -0.39500
N2481       N  0.56419534  0.22619955  0.48130585    -0.37300
N2482       N  0.97716806  0.17826324  0.44823803    -0.39700
N2483       N  0.93398137  0.24491874  0.45838320    -0.39500
N2484       N  0.84894163  0.21023327  0.42297461    -0.37100
N2485       N  0.97699433  0.24053803  0.35638533    -0.38100
N2486       N  0.56047516  0.26638792  0.39241635    -0.39800
C2487       C  0.74245800  0.45468699  0.43235149    -0.04700
C2488       C  0.72683146  0.47878454  0.43414087     0.09400
C2489       C  0.69979735  0.47190932  0.44702837    -0.02100
C2490       C  0.68798243  0.44053820  0.45804348    -0.00400
C2491       C  0.70199476  0.41473857  0.45571499    -0.04000
C2492       C  0.73025724  0.42297044  0.44303919     0.03000
C2493       C  0.73912427  0.51108218  0.42204083     0.09900
C2494       C  0.68273390  0.99617860  0.44837206     0.35800
C2495       C  0.74846904  0.40025636  0.44083485     0.39200
C2496       C  0.72034608  0.00580920  0.40571732    -0.04400
C2497       C  0.73704920  0.03284470  0.39259173     0.02800
C2498       C  0.77292190  0.06504182  0.39572520    -0.04000
C2499       C  0.78996797  0.07181422  0.41267202    -0.00200
C2500       C  0.77292383  0.04489017  0.42583962    -0.02700
C2501       C  0.68462328  0.97174902  0.40217114     0.36500
C2502       C  0.82627143  0.10514116  0.41631973     0.40100
C2503       C  0.71725279  0.02754504  0.37586881     0.39300
C2504       C  0.79115357  0.55082843  0.44296134     0.36200
C2505       C  0.77093289  0.46240380  0.41914208     0.36900
C2506       C  0.65962605  0.43432511  0.47091885     0.40100
N2507       N  0.70144892  0.02346438  0.36255087    -0.38000
N2508       N  0.65617143  0.44454365  0.39923988    -0.39500
N2509       N  0.85530921  0.13158925  0.41929322    -0.37300
N2510       N  0.80553752  0.55550393  0.45667970    -0.39700
N2511       N  0.66887363  0.01530144  0.44928494    -0.39500
N2512       N  0.63723749  0.43150672  0.48098229    -0.37100
N2513       N  0.76531543  0.38472579  0.43764059    -0.38100
N2514       N  0.79354505  0.46861823  0.40860648    -0.39800
C2515       C  0.78232000  0.25857698  0.58520446    -0.04700
C2516       C  0.75832325  0.23803648  0.59884821     0.09400
C2517       C  0.75004591  0.20063975  0.60145181    -0.02100
C2518       C  0.76516749  0.18359546  0.59032610    -0.00400
C2519       C  0.79073926  0.20440305  0.57694011    -0.04000
C2520       C  0.79987615  0.24264046  0.57486950     0.03000
C2521       C  0.74201990  0.25565670  0.61081733     0.09900
C2522       C  0.72598296  0.17969665  0.61582190     0.35800
C2523       C  0.83019352  0.26764109  0.56368040     0.39200
C2524       C  0.70285128  0.24484877  0.60953308    -0.04400
C2525       C  0.68619862  0.25725868  0.62220933     0.02800
C2526       C  0.70864385  0.28072462  0.63622039    -0.04000
C2527       C  0.74821071  0.29325428  0.63699969    -0.00200
C2528       C  0.76489656  0.28074664  0.62432054    -0.02700
C2529       C  0.67947103  0.21999067  0.59541633     0.36500
C2530       C  0.77135539  0.31746719  0.65133532     0.40100
C2531       C  0.64578135  0.24557429  0.62092156     0.39300
C2532       C  0.80534219  0.29265365  0.62552231     0.36200
C2533       C  0.78938909  0.29653961  0.58197621     0.36900
C2534       C  0.75332386  0.14430913  0.59286361     0.40100
N2535       N  0.61354627  0.23620202  0.61985180    -0.38000
N2536       N  0.66079085  0.19992814  0.58422611    -0.39500
N2537       N  0.78981023  0.33665826  0.66281137    -0.37300
N2538       N  0.83766322  0.30236819  0.62648524    -0.39700
N2539       N  0.70680658  0.16316619  0.62729264    -0.39500
N2540       N  0.74216022  0.11285715  0.59568634    -0.37100
N2541       N  0.85418232  0.28975866  0.55524762    -0.38100
N2542       N  0.79491236  0.32672848  0.57931682    -0.39800
C2543       C  0.54048514  0.28491480  0.61356467    -0.04700
C2544       C  0.00486777  0.25352787  0.61675264     0.09400
C2545       C  0.49945095  0.23358886  0.63245580    -0.02100
C2546       C  0.52949722  0.24500418  0.64490087    -0.00400
C2547       C  0.56608602  0.27592856  0.64158023    -0.04000
C2548       C  0.57131890  0.29556016  0.62561064     0.03000
C2549       C  0.97280570  0.24021637  0.60352010     0.09900
C2550       C  0.96294579  0.20071796  0.63554206     0.35800
C2551       C  0.60880756  0.32502841  0.62080145     0.39200
C2552       C  0.97100062  0.21701618  0.58944687    -0.04400
C2553       C  0.93882050  0.20103150  0.57798635     0.02800
C2554       C  0.90788036  0.20841123  0.58039576    -0.04000
C2555       C  0.90990189  0.23134994  0.59490833    -0.00200
C2556       C  0.94239736  0.24752912  0.60614474    -0.02700
C2557       C  0.50165917  0.20812353  0.58743348     0.36500
C2558       C  0.87917997  0.23917743  0.59865414     0.40100
C2559       C  0.93654242  0.17413024  0.56491282     0.39300
C2560       C  0.94442477  0.27141728  0.62074414     0.36200
C2561       C  0.54543879  0.30602641  0.59766579     0.36900
C2562       C  0.52222299  0.22409214  0.66099472     0.40100
N2563       N  0.93602853  0.15292334  0.55465308    -0.38000
N2564       N  0.52614435  0.20099136  0.58598093    -0.39500
N2565       N  0.85588973  0.24648452  0.60273910    -0.37300
N2566       N  0.94600741  0.29037734  0.63239779    -0.39700
N2567       N  0.93388650  0.17441984  0.63804403    -0.39500
N2568       N  0.51612009  0.20672895  0.67362816    -0.37100
N2569       N  0.63865346  0.34826252  0.61673730    -0.38100
N2570       N  0.04938004  0.32286791  0.58492668    -0.39800
C2571       C  0.75123530  0.46655736  0.61132259    -0.04700
C2572       C  0.74836144  0.99974743  0.61285350     0.09400
C2573       C  0.73211906  0.00600263  0.62784473    -0.02100
C2574       C  0.71916895  0.47954349  0.64133882    -0.00400
C2575       C  0.72222492  0.44640923  0.63999268    -0.04000
C2576       C  0.73818260  0.43992392  0.62486364     0.03000
C2577       C  0.76650847  0.03045073  0.59981985     0.09900
C2578       C  0.73019429  0.04056007  0.62967058     0.35800
C2579       C  0.74316246  0.40697871  0.62361569     0.39200
C2580       C  0.74593637  0.03191270  0.58503442    -0.04400
C2581       C  0.76166520  0.06376696  0.57414856     0.02800
C2582       C  0.79888840  0.09433069  0.57774079    -0.04000
C2583       C  0.81944566  0.09180833  0.59258401    -0.00200
C2584       C  0.80332388  0.06013200  0.60342268    -0.02700
C2585       C  0.70787772  0.00101592  0.58148892     0.36500
C2586       C  0.85773093  0.12079797  0.59704930     0.40100
C2587       C  0.73774966  0.06585337  0.56027204     0.39300
C2588       C  0.82442304  0.05820379  0.61870433     0.36200
C2589       C  0.76846047  0.46043671  0.59601554     0.36900
C2590       C  0.70184380  0.48626304  0.65648606     0.40100
N2591       N  0.71778050  0.06633350  0.54928539    -0.38000
N2592       N  0.67755041  0.97619257  0.57879742    -0.39500
N2593       N  0.88823709  0.14187716  0.60193285    -0.37300
N2594       N  0.84102239  0.05657604  0.63091180    -0.39700
N2595       N  0.72891398  0.06822026  0.63121556    -0.39500
N2596       N  0.68812276  0.49166847  0.66857736    -0.37100
N2597       N  0.74740714  0.38085834  0.62262536    -0.38100
N2598       N  0.78223145  0.45554699  0.58380797    -0.39800
C2599       C  0.79405460  0.25363871  0.51890641    -0.04700
C2600       C  0.75377409  0.23654377  0.51765976     0.09400
C2601       C  0.73226672  0.20082022  0.52532747    -0.02100
C2602       C  0.75045496  0.18612776  0.53634984    -0.00400
C2603       C  0.79070584  0.20205921  0.53653066    -0.04000
C2604       C  0.81172365  0.23377943  0.52598603     0.03000
C2605       C  0.73450516  0.25576994  0.50815684     0.09900
C2606       C  0.69168854  0.17845517  0.52149144     0.35800
C2607       C  0.85157415  0.24725131  0.52246059     0.39200
C2608       C  0.74593381  0.27071843  0.49131655    -0.04400
C2609       C  0.73249262  0.29405546  0.48399154     0.02800
C2610       C  0.69870915  0.29290159  0.49012548    -0.04000
C2611       C  0.68332364  0.27204232  0.50553327    -0.00200
C2612       C  0.70453260  0.25943277  0.51572978    -0.02700
C2613       C  0.77036224  0.26114127  0.48115968     0.36500
C2614       C  0.64312821  0.25495814  0.50889867     0.40100
C2615       C  0.75464357  0.31925776  0.47050134     0.39300
C2616       C  0.69479393  0.24990518  0.53386874     0.36200
C2617       C  0.81772133  0.29237956  0.51373259     0.36900
C2618       C  0.72725128  0.15459718  0.54731712     0.40100
N2619       N  0.77424062  0.33883673  0.45990871    -0.38000
N2620       N  0.78952936  0.25308379  0.47307591    -0.39500
N2621       N  0.61098593  0.23772014  0.51185251    -0.37300
N2622       N  0.68712787  0.24245840  0.54836382    -0.39700
N2623       N  0.65936364  0.16049227  0.51835658    -0.39500
N2624       N  0.70771374  0.13023730  0.55628486    -0.37100
N2625       N  0.88305853  0.25927669  0.51855174    -0.38100
N2626       N  0.83667379  0.32329154  0.50968785    -0.39800
C2627       C  0.76657160  0.05158978  0.51335381    -0.04700
C2628       C  0.77487469  0.02352627  0.51928207     0.09400
C2629       C  0.80109398  0.03188702  0.53330095    -0.02100
C2630       C  0.81789102  0.06751253  0.54173196    -0.00400
C2631       C  0.80642801  0.09456460  0.53717281    -0.04000
C2632       C  0.78207031  0.08678900  0.52217864     0.03000
C2633       C  0.75433381  0.48446728  0.51133807     0.09900
C2634       C  0.80994897  0.50310248  0.53936288     0.35800
C2635       C  0.77141903  0.11397254  0.51584686     0.39200
C2636       C  0.77291834  0.47140446  0.50003913    -0.04400
C2637       C  0.75275027  0.43505425  0.49234142     0.02800
C2638       C  0.71315308  0.41199734  0.49502397    -0.04000
C2639       C  0.69568605  0.42403194  0.50764721    -0.00200
C2640       C  0.71611227  0.46005385  0.51559088    -0.02700
C2641       C  0.81290566  0.99550784  0.49634759     0.36500
C2642       C  0.65630736  0.40083906  0.51235024     0.40100
C2643       C  0.77382773  0.42064496  0.48281975     0.39300
C2644       C  0.69744975  0.47234543  0.52807471     0.36200
C2645       C  0.74093520  0.04364785  0.49837096     0.36900
C2646       C  0.84793809  0.07607305  0.55464715     0.40100
N2647       N  0.79240626  0.41025715  0.47583988    -0.38000
N2648       N  0.84486882  0.01460030  0.49346482    -0.39500
N2649       N  0.62509067  0.38504181  0.51690227    -0.37300
N2650       N  0.68222834  0.48191804  0.53793788    -0.39700
N2651       N  0.81676728  0.47999152  0.54411402    -0.39500
N2652       N  0.87165492  0.08120670  0.56487111    -0.37100
N2653       N  0.76254083  0.13488936  0.51005387    -0.38100
N2654       N  0.72036806  0.03723795  0.48647202    -0.39800
C2655       C  0.52297808  0.29992515  0.49943434    -0.04700
C2656       C  0.51860299  0.27647552  0.51359256     0.09400
C2657       C  0.55082342  0.27614673  0.52086924    -0.02100
C2658       C  0.58692106  0.29769664  0.51341518    -0.00400
C2659       C  0.58999069  0.31427974  0.49670327    -0.04000
C2660       C  0.55866269  0.31970304  0.49137479     0.03000
C2661       C  0.98092838  0.25570379  0.52224828     0.09900
C2662       C  0.54690514  0.25422602  0.53638489     0.35800
C2663       C  0.56348940  0.34910439  0.47942604     0.39200
C2664       C  0.95437226  0.21915843  0.51668896    -0.04400
C2665       C  0.91977204  0.19873405  0.52555151     0.02800
C2666       C  0.91092397  0.21525192  0.53993885    -0.04000
C2667       C  0.93703487  0.25333644  0.54453967    -0.00200
C2668       C  0.97212858  0.27289471  0.53603299    -0.02700
C2669       C  0.96303936  0.20250862  0.50183547     0.36500
C2670       C  0.92781304  0.27393096  0.55728415     0.40100
C2671       C  0.89474356  0.16022698  0.52001847     0.39300
C2672       C  0.99933993  0.31116525  0.54131687     0.36200
C2673       C  0.99076764  0.30433671  0.49348691     0.36900
C2674       C  0.61971745  0.30816949  0.52489850     0.40100
N2675       N  0.87603861  0.12973993  0.51491650    -0.38000
N2676       N  0.96993707  0.18936463  0.48994369    -0.39500
N2677       N  0.92258230  0.29200198  0.56742858    -0.37300
N2678       N  0.52126416  0.34166121  0.54558329    -0.39700
N2679       N  0.54364838  0.23647991  0.54866395    -0.39500
N2680       N  0.64481107  0.31627566  0.53479076    -0.37100
N2681       N  0.56476213  0.37209182  0.47016809    -0.38100
N2682       N  0.96514059  0.30805489  0.48889321    -0.39800
C2683       C  0.83518627  0.66994015  0.54094932     0.46200
H2684       H  0.83658231  0.67103503  0.52650169    -0.02800
C2685       C  0.83217469  0.66893404  0.57481060     0.46200
H2686       H  0.83066903  0.66839550  0.58927533    -0.02800
C2687       C  0.87486746  0.69289718  0.55004939    -0.16500
C2688       C  0.81073162  0.68675081  0.54815931    -0.16300
C2689       C  0.81825104  0.62953480  0.54846349    -0.16700
C2690       C  0.87335578  0.69150918  0.56809808    -0.16600
C2691       C  0.80970010  0.68686612  0.56617445    -0.16200
C2692       C  0.81594572  0.62920744  0.56653361    -0.16500
C2693       C  0.65892862  0.83980022  0.45736496     0.46200
H2694       H  0.65433309  0.84178292  0.44345105    -0.02800
C2695       C  0.66625427  0.83748425  0.49086389     0.46200
H2696       H  0.67194534  0.83797413  0.50494269    -0.02800
C2697       C  0.67419722  0.81270527  0.46249795    -0.16500
C2698       C  0.68587669  0.87873024  0.46589896    -0.16300
C2699       C  0.62073446  0.82438449  0.46656569    -0.16700
C2700       C  0.67939992  0.81240944  0.48061952    -0.16600
C2701       C  0.68989067  0.87741527  0.48368466    -0.16200
C2702       C  0.62394584  0.82467883  0.48471744    -0.16500
O2703       O  0.59786138  0.74430899  0.69770551    -0.80200
O2704       O  0.68696096  0.88419925  0.65080263    -0.64800
O2705       O  0.66278657  0.80905882  0.68517950    -1.11400
C2706       C  0.62965066  0.88520421  0.71912189     1.06700
O2707       O  0.71788011  0.93065563  0.67005851    -0.78100
O2708       O  0.72374822  0.90926286  0.70299859    -0.65600
Ni2709     Ni  0.63426606  0.75669541  0.67909680     1.34900
C2710       C  0.71786562  0.88296104  0.71346675     0.85500
O2711       O  0.69584965  0.82341855  0.65203016    -0.78600
O2712       O  0.66786125  0.76296613  0.66021898    -0.88900
C2713       C  0.70810358  0.91876978  0.65436116     0.85000
O2714       O  0.59894147  0.75944773  0.66301419    -0.67100
O2715       O  0.65814946  0.91213649  0.71175955    -0.86400
C2716       C  0.59894018  0.78570792  0.65411061     0.85900
C2717       C  0.68987909  0.78981994  0.65044524     1.07400
H2718       H  0.63118106  0.86596828  0.67805470     0.39200
O2719       O  0.65406911  0.86730983  0.68313438    -1.09000
O2720       O  0.68601480  0.85323995  0.71422547    -0.65700
Ni2721     Ni  0.63986161  0.82958040  0.70031402     1.26300
O2722       O  0.62593810  0.81952159  0.65521574    -0.65900
O2723       O  0.61695954  0.85094592  0.71480221    -0.78200
C2724       C  0.60421288  0.75719143  0.71331433     0.85300
O2725       O  0.62609229  0.79132353  0.71677808    -0.65400
Ni2726     Ni  0.68693871  0.91819838  0.69068452     1.27400
Ni2727     Ni  0.67477099  0.84562090  0.66740272     1.26100
H2728       H  0.68661844  0.81298577  0.69037065     0.39800
C2729       C  0.98026781  0.50357651  0.79132072     0.46200
H2730       H  0.97821801  0.49729571  0.77734782    -0.02800
C2731       C  0.98122504  0.51114825  0.82484592     0.46200
H2732       H  0.98057942  0.51559504  0.83884998    -0.02800
C2733       C  0.00492469  0.98896793  0.80093933    -0.16500
C2734       C  0.99573673  0.54524991  0.79717783    -0.16300
C2735       C  0.94032840  0.98270699  0.79878654    -0.16700
C2736       C  0.00660838  0.99373369  0.81909124    -0.16600
C2737       C  0.99832021  0.54915752  0.81528588    -0.16200
C2738       C  0.94006772  0.98645750  0.81667739    -0.16500
C2739       C  0.64801755  0.83333214  0.90974240     0.46200
H2740       H  0.64367918  0.82835030  0.92373673    -0.02800
C2741       C  0.65060158  0.84253598  0.87631158     0.46200
H2742       H  0.65309410  0.84872275  0.86231929    -0.02800
C2743       C  0.68974059  0.85896853  0.90347214    -0.16500
C2744       C  0.63184310  0.79577904  0.89924791    -0.16300
C2745       C  0.62515111  0.85249419  0.90355344    -0.16700
C2746       C  0.69045772  0.86272510  0.88531172    -0.16600
C2747       C  0.63449862  0.80024482  0.88125170    -0.16200
C2748       C  0.62628722  0.85769968  0.88575581    -0.16500
C2749       C  0.85472993  0.67341943  0.15843777     0.46200
H2750       H  0.85097776  0.67313827  0.17265153    -0.02800
C2751       C  0.86105137  0.67634742  0.12478253     0.46200
H2752       H  0.86501464  0.67812980  0.11049978    -0.02800
C2753       C  0.87382879  0.65041547  0.15130154    -0.16500
C2754       C  0.81547751  0.65689087  0.14880463    -0.16300
C2755       C  0.87861267  0.71393099  0.15163772    -0.16700
C2756       C  0.87808173  0.65313118  0.13320106    -0.16600
C2757       C  0.81877172  0.65733048  0.13073142    -0.16200
C2758       C  0.88148116  0.71547833  0.13380898    -0.16500
C2759       C  0.52433546  0.00703048  0.20889423     0.46200
H2760       H  0.52133665  0.00668792  0.19448374    -0.02800
C2761       C  0.52879436  0.00569901  0.24270075     0.46200
H2762       H  0.53095764  0.00459434  0.25711958    -0.02800
C2763       C  0.56627790  0.52922179  0.21623952    -0.16500
C2764       C  0.50271467  0.52489114  0.21801299    -0.16300
C2765       C  0.50730789  0.96690165  0.21621106    -0.16700
C2766       C  0.56844551  0.52733756  0.23430944    -0.16600
C2767       C  0.50625848  0.52549945  0.23608010    -0.16200
C2768       C  0.50910227  0.96608319  0.23414428    -0.16500
O2769       O  0.79572926  0.57591909  0.36676606    -0.80200
O2770       O  0.87879007  0.71892722  0.31771839    -0.64800
O2771       O  0.85228837  0.64508028  0.35342321    -1.11400
C2772       C  0.80198821  0.71504016  0.38116454     1.06700
O2773       O  0.90126297  0.76528114  0.33706435    -0.78100
O2774       O  0.89958875  0.74799771  0.37074665    -0.65600
Ni2775     Ni  0.82655306  0.59322183  0.34620570     1.34900
C2776       C  0.89516036  0.72268425  0.38151684     0.85500
O2777       O  0.89557165  0.66358945  0.32312111    -0.78600
O2778       O  0.85526979  0.60213279  0.32498902    -0.88900
C2779       C  0.89608252  0.75379965  0.32129544     0.85000
O2780       O  0.78696327  0.59775524  0.33434692    -0.67100
O2781       O  0.82871401  0.74294739  0.37351275    -0.86400
C2782       C  0.79133188  0.61944654  0.32170031     0.85900
C2783       C  0.88435375  0.62978898  0.31852042     1.07400
H2784       H  0.81483241  0.69457899  0.34129391     0.39200
O2785       O  0.83735351  0.69901405  0.34798647    -1.09000
O2786       O  0.86568108  0.69055070  0.38155488    -0.65700
Ni2787     Ni  0.82258637  0.66263029  0.36598950     1.26300
O2788       O  0.82200865  0.65058952  0.32007068    -0.65900
O2789       O  0.79377047  0.68123811  0.37802693    -0.78200
C2790       C  0.79314493  0.59042638  0.38108161     0.85300
O2791       O  0.80721317  0.62540541  0.38335632    -0.65400
Ni2792     Ni  0.86380521  0.75103611  0.35499190     1.27400
Ni2793     Ni  0.86601580  0.68134538  0.33515565     1.26100
H2794       H  0.87499822  0.64996022  0.36007181     0.39800
O2795       O  0.54579972  0.59996388  0.99890198    -0.80200
O2796       O  0.00241522  0.96433682  0.05133763    -0.64800
O2797       O  0.53808391  0.53323692  0.01358153    -1.11400
C2798       C  0.91976080  0.96040086  0.98632589     1.06700
O2799       O  0.95909704  0.91363638  0.03682348    -0.78100
O2800       O  0.98786575  0.93149831  0.00441037    -0.65600
Ni2801     Ni  0.56328416  0.58563914  0.01970628     1.34900
C2802       C  0.50285576  0.95070963  0.99092497     0.85500
O2803       O  0.56959804  0.51868029  0.04299818    -0.78600
O2804       O  0.58670026  0.57937997  0.04090778    -0.88900
C2805       C  0.98028401  0.92921042  0.05021718     0.85000
O2806       O  0.52057451  0.58149808  0.03208013    -0.67100
O2807       O  0.92333086  0.93394866  0.99333787    -0.86400
C2808       C  0.00587271  0.56101810  0.04527655     0.85900
C2809       C  0.59098342  0.55276749  0.04730453     1.07400
H2810       H  0.95430249  0.98667271  0.02807579     0.39200
O2811       O  0.97084559  0.98067464  0.02133886    -1.09000
O2812       O  0.50144919  0.98089902  0.98771556    -0.65700
Ni2813     Ni  0.98950059  0.51384916  0.00187447     1.26300
O2814       O  0.00846265  0.53126929  0.04779664    -0.65900
O2815       O  0.94047582  0.99440190  0.99093411    -0.78200
C2816       C  0.52828404  0.58398771  0.98470109     0.85300
O2817       O  0.50895509  0.54853653  0.98312468    -0.65400
Ni2818     Ni  0.94425850  0.92810499  0.01542147     1.27400
Ni2819     Ni  0.52005489  0.99944622  0.03269147     1.26100
H2820       H  0.55531653  0.52812741  0.00682053     0.39800
C2821       C  0.66859316  0.55230767  0.25300146    -0.04700
C2822       C  0.66931964  0.57035704  0.26880412     0.09400
C2823       C  0.63845082  0.57580134  0.27301165    -0.02100
C2824       C  0.60713335  0.56410591  0.26131018    -0.00400
C2825       C  0.60466595  0.54390148  0.24562918    -0.04000
C2826       C  0.63626008  0.53833340  0.24163327     0.03000
C2827       C  0.70211059  0.58283563  0.28150365     0.09900
C2828       C  0.63877776  0.59318128  0.28972008     0.35800
C2829       C  0.63573689  0.51658696  0.22653061     0.39200
C2830       C  0.72836747  0.62132659  0.28369638    -0.04400
C2831       C  0.75675847  0.63357541  0.29705342     0.02800
C2832       C  0.76024776  0.60703899  0.30792150    -0.04000
C2833       C  0.73456477  0.56804033  0.30495762    -0.00200
C2834       C  0.70517837  0.55629154  0.29215384    -0.02700
C2835       C  0.72572427  0.64836153  0.27221122     0.36500
C2836       C  0.73863466  0.53933290  0.31449362     0.40100
C2837       C  0.78137592  0.67366265  0.29970077     0.39300
C2838       C  0.67756868  0.51667942  0.29003534     0.36200
C2839       C  0.70094398  0.54708187  0.24884878     0.36900
C2840       C  0.57941474  0.57581534  0.26551101     0.40100
N2841       N  0.80075254  0.70572179  0.30165820    -0.38000
N2842       N  0.72345814  0.66973510  0.26299976    -0.39500
N2843       N  0.74170844  0.51623054  0.32197639    -0.37300
N2844       N  0.65549323  0.98494270  0.28836050    -0.39700
N2845       N  0.63901415  0.60687047  0.30304520    -0.39500
N2846       N  0.55997199  0.58755367  0.27023703    -0.37100
N2847       N  0.63759274  0.50002567  0.21461013    -0.38100
N2848       N  0.72687721  0.54294459  0.24584416    -0.39800
C2849       C  0.93707209  0.87486916  0.25630036    -0.04700
C2850       C  0.96090434  0.86840356  0.26779550     0.09400
C2851       C  0.00065997  0.89190939  0.26732586    -0.02100
C2852       C  0.51625482  0.92254867  0.25589034    -0.00400
C2853       C  0.99258193  0.93078657  0.24481491    -0.04000
C2854       C  0.95250675  0.90636904  0.24528770     0.03000
C2855       C  0.94372236  0.83842633  0.28127673     0.09900
C2856       C  0.52486552  0.88452679  0.27911998     0.35800
C2857       C  0.92578427  0.91491978  0.23628261     0.39200
C2858       C  0.94155395  0.80312936  0.27865169    -0.04400
C2859       C  0.92668764  0.77551931  0.29173298     0.02800
C2860       C  0.91163053  0.78223585  0.30713663    -0.04000
C2861       C  0.91160019  0.81692106  0.30911773    -0.00200
C2862       C  0.92866919  0.84519333  0.29655204    -0.02700
C2863       C  0.95397473  0.79503288  0.26229349     0.36500
C2864       C  0.89269744  0.82336066  0.32373898     0.40100
C2865       C  0.92829313  0.74091452  0.28949120     0.39300
C2866       C  0.93055235  0.88131956  0.29943943     0.36200
C2867       C  0.89615494  0.84955495  0.25630534     0.36900
C2868       C  0.55726048  0.94562727  0.25584276     0.40100
N2869       N  0.92986820  0.71345224  0.28769133    -0.38000
N2870       N  0.46255503  0.78780598  0.24896810    -0.39500
N2871       N  0.87751212  0.82859722  0.33529427    -0.37300
N2872       N  0.93168265  0.90981742  0.30218922    -0.39700
N2873       N  0.54430150  0.87866987  0.28850053    -0.39500
N2874       N  0.59020213  0.96243521  0.25650834    -0.37100
N2875       N  0.90156293  0.91877460  0.22992265    -0.38100
N2876       N  0.86357825  0.82937501  0.25627668    -0.39800
C2877       C  0.95599332  0.54459966  0.27418779    -0.04700
C2878       C  0.96142004  0.58053306  0.27023986     0.09400
C2879       C  0.98435124  0.60017034  0.25614176    -0.02100
C2880       C  0.99970330  0.58292112  0.24521766    -0.00400
C2881       C  0.99206367  0.54536576  0.24829448    -0.04000
C2882       C  0.97139923  0.52722389  0.26346392     0.03000
C2883       C  0.94325137  0.59764968  0.28133230     0.09900
C2884       C  0.99346938  0.63887808  0.25344917     0.35800
C2885       C  0.46509767  0.49025508  0.26831959     0.39200
C2886       C  0.96330746  0.62056441  0.29589514    -0.04400
C2887       C  0.94453007  0.63253999  0.30769045     0.02800
C2888       C  0.90551317  0.62157712  0.30497792    -0.04000
C2889       C  0.88596257  0.60004039  0.28993412    -0.00200
C2890       C  0.90477949  0.58807612  0.27818221    -0.02700
C2891       C  0.00283601  0.63033977  0.29911330     0.36500
C2892       C  0.84638259  0.59001851  0.28654929     0.40100
C2893       C  0.96471451  0.65403786  0.32322225     0.39300
C2894       C  0.88420874  0.56476408  0.26313770     0.36200
C2895       C  0.93481983  0.52571084  0.28960908     0.36900
C2896       C  0.02560151  0.60539346  0.23175846     0.40100
N2897       N  0.98075113  0.67100556  0.33566908    -0.38000
N2898       N  0.53456112  0.63830244  0.30163248    -0.39500
N2899       N  0.81483697  0.58196478  0.28375965    -0.37300
N2900       N  0.86760679  0.04587516  0.25117428    -0.39700
N2901       N  0.00108702  0.66993389  0.25159397    -0.39500
N2902       N  0.04591359  0.62440497  0.22113289    -0.37100
N2903       N  0.45992506  0.46128012  0.27306690    -0.38100
N2904       N  0.91812695  0.51091798  0.30196945    -0.39800
C2905       C  0.96687912  0.84171296  0.07367582    -0.04700
C2906       C  0.96102698  0.84946103  0.09098885     0.09400
C2907       C  0.96791783  0.88594663  0.09555484    -0.02100
C2908       C  0.97655442  0.91327871  0.08249117    -0.00400
C2909       C  0.97873919  0.90423637  0.06480026    -0.04000
C2910       C  0.97671363  0.86929004  0.06076691     0.03000
C2911       C  0.94240413  0.81777143  0.10358751     0.09900
C2912       C  0.96443991  0.89469848  0.11361512     0.35800
C2913       C  0.98547801  0.86181834  0.04334906     0.39200
C2914       C  0.96199466  0.79990768  0.11071195    -0.04400
C2915       C  0.94232686  0.76692273  0.12067432     0.02800
C2916       C  0.90287921  0.75168622  0.12389802    -0.04000
C2917       C  0.88418792  0.77132199  0.11746488    -0.00200
C2918       C  0.90354701  0.80348319  0.10710627    -0.02700
C2919       C  0.00232176  0.81511116  0.10739202     0.36500
C2920       C  0.84456968  0.75882750  0.12060244     0.40100
C2921       C  0.96339021  0.74914582  0.12739785     0.39300
C2922       C  0.88282218  0.82102911  0.09928062     0.36200
C2923       C  0.96084753  0.80462606  0.06892427     0.36900
C2924       C  0.98182967  0.95001176  0.08729436     0.40100
N2925       N  0.98245441  0.73694709  0.13236742    -0.38000
N2926       N  0.53442482  0.82739812  0.10477046    -0.39500
N2927       N  0.81324806  0.75208159  0.12188257    -0.37300
N2928       N  0.86630085  0.83489095  0.09300781    -0.39700
N2929       N  0.96162819  0.90163444  0.12802406    -0.39500
N2930       N  0.98637047  0.97935251  0.09134399    -0.37100
N2931       N  0.99292310  0.85594345  0.02954509    -0.38100
N2932       N  0.95604014  0.77502998  0.06520270    -0.39800
C2933       C  0.65408180  0.59634461  0.08758656    -0.04700
C2934       C  0.68376163  0.58800652  0.08458767     0.09400
C2935       C  0.68158566  0.56550644  0.07007505    -0.02100
C2936       C  0.65030649  0.55240471  0.05820974    -0.00400
C2937       C  0.62143932  0.56230923  0.06073470    -0.04000
C2938       C  0.62281455  0.58327907  0.07576567     0.03000
C2939       C  0.71859554  0.60497461  0.09611652     0.09900
C2940       C  0.71236156  0.55715366  0.06705801     0.35800
C2941       C  0.59166720  0.59079884  0.07928067     0.39200
C2942       C  0.72208626  0.58486670  0.11024369    -0.04400
C2943       C  0.75516224  0.60109858  0.12110069     0.02800
C2944       C  0.78525124  0.63818712  0.11797777    -0.04000
C2945       C  0.78287581  0.65613776  0.10237961    -0.00200
C2946       C  0.74902682  0.64034334  0.09209664    -0.02700
C2947       C  0.69197464  0.54675699  0.11310523     0.36500
C2948       C  0.81528678  0.68902528  0.09560940     0.40100
C2949       C  0.75935196  0.57746294  0.13409239     0.39300
C2950       C  0.74549645  0.66032266  0.07707479     0.36200
C2951       C  0.65636152  0.61935153  0.10257091     0.36900
C2952       C  0.64867439  0.53001544  0.04308607     0.40100
N2953       N  0.76112984  0.55723511  0.14418929    -0.38000
N2954       N  0.66798384  0.51622833  0.11508036    -0.39500
N2955       N  0.84038312  0.71398940  0.08888131    -0.37300
N2956       N  0.74249710  0.67620146  0.06514858    -0.39700
N2957       N  0.73709440  0.55074600  0.06470539    -0.39500
N2958       N  0.64743155  0.51205427  0.03106915    -0.37100
N2959       N  0.56678734  0.59663585  0.08223347    -0.38100
N2960       N  0.65821970  0.63788431  0.11445539    -0.39800
C2961       C  0.94093738  0.55824240  0.08230197    -0.04700
C2962       C  0.95287412  0.59673239  0.08491035     0.09400
C2963       C  0.98179497  0.62350857  0.07445106    -0.02100
C2964       C  0.99918695  0.61206891  0.06164879    -0.00400
C2965       C  0.98674506  0.57322269  0.05862294    -0.04000
C2966       C  0.95672732  0.54642851  0.06887354     0.03000
C2967       C  0.93326694  0.60909905  0.09790376     0.09900
C2968       C  0.49345370  0.66307368  0.07682783     0.35800
C2969       C  0.94015554  0.50656723  0.06504759     0.39200
C2970       C  0.95141410  0.62662438  0.11379964    -0.04400
C2971       C  0.93377869  0.64036535  0.12549675     0.02800
C2972       C  0.89687607  0.63609412  0.12161706    -0.04000
C2973       C  0.87831979  0.61641443  0.10578267    -0.00200
C2974       C  0.89674088  0.60398829  0.09398325    -0.02700
C2975       C  0.98881662  0.63083083  0.11787187     0.36500
C2976       C  0.83902893  0.60554075  0.10154754     0.40100
C2977       C  0.95463840  0.65872525  0.14134480     0.39300
C2978       C  0.87797708  0.58576656  0.07753304     0.36200
C2979       C  0.91218223  0.53073702  0.09350582     0.36900
C2980       C  0.53037182  0.64085531  0.05190390     0.40100
N2981       N  0.97282003  0.67260804  0.15383959    -0.38000
N2982       N  0.01870020  0.63400643  0.12072793    -0.39500
N2983       N  0.80788319  0.59412739  0.09662508    -0.37300
N2984       N  0.86304808  0.57117157  0.06446447    -0.39700
N2985       N  0.50257251  0.69455059  0.07877658    -0.39500
N2986       N  0.55511233  0.66398762  0.04415748    -0.37100
N2987       N  0.92650127  0.97478595  0.06207998    -0.38100
N2988       N  0.88936658  0.50892296  0.10252513    -0.39800
C2989       C  0.92254638  0.62165565  0.18736981    -0.04700
C2990       C  0.92024570  0.58905096  0.17990950     0.09400
C2991       C  0.89687874  0.57262889  0.16502073    -0.02100
C2992       C  0.87813797  0.59041148  0.15682673    -0.00400
C2993       C  0.88474609  0.62638252  0.16276541    -0.04000
C2994       C  0.90340167  0.63922580  0.17942428     0.03000
C2995       C  0.94003782  0.57040753  0.18875421     0.09900
C2996       C  0.89218515  0.53728268  0.15818164     0.35800
C2997       C  0.90019747  0.66739154  0.18972704     0.39200
C2998       C  0.92248689  0.54575290  0.20257826    -0.04400
C2999       C  0.94232830  0.53072137  0.21211149     0.02800
C3000       C  0.98016776  0.53956720  0.20757924    -0.04000
C3001       C  0.49675649  0.56335966  0.19303767    -0.00200
C3002       C  0.97697914  0.57904827  0.18396304    -0.02700
C3003       C  0.88371306  0.53610385  0.20700693     0.36500
C3004       C  0.53496663  0.57412559  0.18738932     0.40100
C3005       C  0.92233497  0.00561908  0.22621977     0.39300
C3006       C  0.49572643  0.60588852  0.17025341     0.36200
C3007       C  0.94500819  0.63728491  0.20332937     0.36900
C3008       C  0.84978091  0.56969046  0.14329891     0.40100
N3009       N  0.90469274  0.98684533  0.23755813    -0.38000
N3010       N  0.85276974  0.52846745  0.21037850    -0.39500
N3011       N  0.56492921  0.58411910  0.18177999    -0.37300
N3012       N  0.51172914  0.62743388  0.15949124    -0.39700
N3013       N  0.88861813  0.50912437  0.15279091    -0.39500
N3014       N  0.82738618  0.55169719  0.13264312    -0.37100
N3015       N  0.89736292  0.68859410  0.19888392    -0.38100
N3016       N  0.96310231  0.64986592  0.21598530    -0.39800
C3017       C  0.66404449  0.60758339  0.20151130    -0.04700
C3018       C  0.67071883  0.59083512  0.18686031     0.09400
C3019       C  0.64155954  0.55604306  0.18047458    -0.02100
C3020       C  0.60661723  0.53682636  0.18927586    -0.00400
C3021       C  0.60051361  0.55219004  0.20487795    -0.04000
C3022       C  0.62863331  0.58931538  0.20996507     0.03000
C3023       C  0.70846915  0.60984296  0.17794105     0.09900
C3024       C  0.64823888  0.53940642  0.16504919     0.35800
C3025       C  0.62118047  0.61009740  0.22331170     0.39200
C3026       C  0.73698087  0.60062475  0.18236829    -0.04400
C3027       C  0.77164607  0.61631559  0.17324285     0.02800
C3028       C  0.77826822  0.64122754  0.15897410    -0.04000
C3029       C  0.74864664  0.65007617  0.15468628    -0.00200
C3030       C  0.71460633  0.63501852  0.16433041    -0.02700
C3031       C  0.72978671  0.57336234  0.19599038     0.36500
C3032       C  0.75064453  0.67294132  0.13995877     0.40100
C3033       C  0.79802383  0.60295295  0.17802124     0.39300
C3034       C  0.68502480  0.64475466  0.16003129     0.36200
C3035       C  0.69419771  0.64336971  0.20815924     0.36900
C3036       C  0.57769393  0.50132395  0.18194086     0.40100
N3037       N  0.81626101  0.58972633  0.18290445    -0.38000
N3038       N  0.72416637  0.55130284  0.20665209    -0.39500
N3039       N  0.74794011  0.68925979  0.12817335    -0.37300
N3040       N  0.66143803  0.65251238  0.15670395    -0.39700
N3041       N  0.65379131  0.52611334  0.15282254    -0.39500
N3042       N  0.55527132  0.47373680  0.17515559    -0.37100
N3043       N  0.61687242  0.62803293  0.23387518    -0.38100
N3044       N  0.71841314  0.67171474  0.21354914    -0.39800
C3045       C  0.99233862  0.88071589  0.18950580    -0.04700
C3046       C  0.95204668  0.86107176  0.18713366     0.09400
C3047       C  0.93185628  0.87949115  0.19290542    -0.02100
C3048       C  0.95213520  0.91744887  0.19822696    -0.00400
C3049       C  0.98981797  0.93228915  0.20475909    -0.04000
C3050       C  0.50928791  0.91223090  0.20091406     0.03000
C3051       C  0.93157463  0.82181155  0.17908467     0.09900
C3052       C  0.89091457  0.85931376  0.19515858     0.35800
C3053       C  0.54601406  0.92251748  0.20888969     0.39200
C3054       C  0.94267669  0.79453559  0.18340774    -0.04400
C3055       C  0.92878871  0.76130759  0.17319244     0.02800
C3056       C  0.89489351  0.74876759  0.16302844    -0.04000
C3057       C  0.87841192  0.77237224  0.16234995    -0.00200
C3058       C  0.90022922  0.81046178  0.16719460    -0.02700
C3059       C  0.96748060  0.79975236  0.19842976     0.36500
C3060       C  0.83767772  0.75659784  0.16012605     0.40100
C3061       C  0.95133462  0.74251216  0.17269475     0.39300
C3062       C  0.89123337  0.83728688  0.15893283     0.36200
C3063       C  0.51629655  0.86949285  0.18010369     0.36900
C3064       C  0.93441457  0.94074256  0.19589225     0.40100
N3065       N  0.97146496  0.72964402  0.17298759    -0.38000
N3066       N  0.98729430  0.80393020  0.21039882    -0.39500
N3067       N  0.80497103  0.74470052  0.15945517    -0.37300
N3068       N  0.88402393  0.85857470  0.15219729    -0.39700
N3069       N  0.85829662  0.84324056  0.19719275    -0.39500
N3070       N  0.91905010  0.95803487  0.19310220    -0.37100
N3071       N  0.57458446  0.92836560  0.21546674    -0.38100
N3072       N  0.53550632  0.86069705  0.17250791    -0.39800
C3073       C  0.79188740  0.92808896  0.92089257    -0.04700
C3074       C  0.79580928  0.90879877  0.93524367     0.09400
C3075       C  0.76414441  0.87567757  0.94067231    -0.02100
C3076       C  0.72843214  0.86220291  0.93202225    -0.00400
C3077       C  0.72519223  0.87794508  0.91573779    -0.04000
C3078       C  0.75645315  0.91392939  0.91182123     0.03000
C3079       C  0.83091392  0.92638719  0.94671027     0.09900
C3080       C  0.76796145  0.85635900  0.95591965     0.35800
C3081       C  0.75049400  0.94090514  0.90192774     0.39200
C3082       C  0.83449279  0.95217962  0.95999695    -0.04400
C3083       C  0.86432738  0.96440522  0.97262832     0.02800
C3084       C  0.89077351  0.95084567  0.97203869    -0.04000
C3085       C  0.88838392  0.92676427  0.95807733    -0.00200
C3086       C  0.85833771  0.91436117  0.94555346    -0.02700
C3087       C  0.80644501  0.96490947  0.96106460     0.36500
C3088       C  0.91712439  0.91513178  0.95633380     0.40100
C3089       C  0.86651051  0.98936931  0.98673605     0.39300
C3090       C  0.85483871  0.88830306  0.93173095     0.36200
C3091       C  0.82404566  0.96369165  0.91601696     0.36900
C3092       C  0.69581900  0.83818012  0.94238049     0.40100
N3093       N  0.86828670  0.00926904  0.99799849    -0.38000
N3094       N  0.78406483  0.97504900  0.96188724    -0.39500
N3095       N  0.93992814  0.90576953  0.95466050    -0.37300
N3096       N  0.85184298  0.86737639  0.92073374    -0.39700
N3097       N  0.77110768  0.84090244  0.96798370    -0.39500
N3098       N  0.67114803  0.81981203  0.95157721    -0.37100
N3099       N  0.74814798  0.96480106  0.89484758    -0.38100
N3100       N  0.84968918  0.99207210  0.91216123    -0.39800
C3101       C  0.61297701  0.71711061  0.93187504    -0.04700
C3102       C  0.57324792  0.69401729  0.93010436     0.09400
C3103       C  0.55306422  0.70178191  0.91702744    -0.02100
C3104       C  0.57233618  0.73343948  0.90619919    -0.00400
C3105       C  0.61203256  0.75856273  0.90871385    -0.04000
C3106       C  0.63230759  0.74878609  0.92117895     0.03000
C3107       C  0.55313047  0.66251601  0.94267197     0.09900
C3108       C  0.51219013  0.67745272  0.91499250     0.35800
C3109       C  0.67351707  0.76836134  0.92205099     0.39200
C3110       C  0.54330385  0.67025167  0.95917838    -0.04400
C3111       C  0.53253607  0.64349970  0.97258298     0.02800
C3112       C  0.53148770  0.60857312  0.96957670    -0.04000
C3113       C  0.53665132  0.59918218  0.95233360    -0.00200
C3114       C  0.54794481  0.62631582  0.93901425    -0.02700
C3115       C  0.54539263  0.70635572  0.96244739     0.36500
C3116       C  0.03131752  0.56219846  0.94821511     0.40100
C3117       C  0.52219883  0.65197213  0.98943911     0.39300
C3118       C  0.55531308  0.61729980  0.92166759     0.36200
C3119       C  0.63405012  0.70817320  0.94491871     0.36900
C3120       C  0.55094630  0.73829909  0.89203446     0.40100
N3121       N  0.51386826  0.65873832  0.00285817    -0.38000
N3122       N  0.54698684  0.73515821  0.96492456    -0.39500
N3123       N  0.02680892  0.53261727  0.94469210    -0.37300
N3124       N  0.06020686  0.60948659  0.90780076    -0.39700
N3125       N  0.47956352  0.65811153  0.91343239    -0.39500
N3126       N  0.53234375  0.73931990  0.88056259    -0.37100
N3127       N  0.70635411  0.78149695  0.92317165    -0.38100
N3128       N  0.65069614  0.70096537  0.95534508    -0.39800
C3129       C  0.60679269  0.90054326  0.94303364    -0.04700
C3130       C  0.56890572  0.89248982  0.93982531     0.09400
C3131       C  0.54846698  0.86922786  0.92540565    -0.02100
C3132       C  0.56585929  0.85407751  0.91441905    -0.00400
C3133       C  0.60525253  0.86537895  0.91642052    -0.04000
C3134       C  0.62539091  0.88871801  0.93108873     0.03000
C3135       C  0.55053669  0.90736142  0.95226773     0.09900
C3136       C  0.50917482  0.86025555  0.92203997     0.35800
C3137       C  0.66594411  0.90355534  0.93386520     0.39200
C3138       C  0.56442045  0.94649842  0.95408624    -0.04400
C3139       C  0.55059586  0.96079112  0.96732296     0.02800
C3140       C  0.52038413  0.93600234  0.97801414    -0.04000
C3141       C  0.50590905  0.89659438  0.97581125    -0.00200
C3142       C  0.52178832  0.88262948  0.96344567    -0.02700
C3143       C  0.59368824  0.97223903  0.94251796     0.36500
C3144       C  0.97369343  0.86980738  0.98576286     0.40100
C3145       C  0.56946455  0.50092734  0.97061665     0.39300
C3146       C  0.00901209  0.84263761  0.96251634     0.36200
C3147       C  0.62675049  0.92103857  0.95888790     0.36900
C3148       C  0.54190183  0.82462656  0.90211638     0.40100
N3149       N  0.58494749  0.53301740  0.97327920    -0.38000
N3150       N  0.61717283  0.99278534  0.93336229    -0.39500
N3151       N  0.94797239  0.84827165  0.99360438    -0.37300
N3152       N  0.99884684  0.81075131  0.96173481    -0.39700
N3153       N  0.47776358  0.85286881  0.91939435    -0.39500
N3154       N  0.52093686  0.80062861  0.89288952    -0.37100
N3155       N  0.69823795  0.91839427  0.93725979    -0.38100
N3156       N  0.64248389  0.93729871  0.97153108    -0.39800
C3157       C  0.56530124  0.88369772  0.85489993    -0.04700
C3158       C  0.57789941  0.92137838  0.85957306     0.09400
C3159       C  0.60581210  0.93826482  0.87295478    -0.02100
C3160       C  0.62153335  0.91782033  0.88142335    -0.00400
C3161       C  0.60947279  0.87974934  0.87665204    -0.04000
C3162       C  0.58061450  0.86293188  0.86340366     0.03000
C3163       C  0.56220283  0.94360693  0.85019802     0.09900
C3164       C  0.61887343  0.97722554  0.87778845     0.35800
C3165       C  0.56373948  0.82350546  0.85905478     0.39200
C3166       C  0.53337949  0.94897075  0.85765980    -0.04400
C3167       C  0.52017867  0.97162150  0.84925137     0.02800
C3168       C  0.53105895  0.98408017  0.83177122    -0.04000
C3169       C  0.56513762  0.98469660  0.82628212    -0.00200
C3170       C  0.57920727  0.96296860  0.83486331    -0.02700
C3171       C  0.51750673  0.93138926  0.87419063     0.36500
C3172       C  0.59000260  0.01248742  0.81410758     0.40100
C3173       C  0.00135614  0.98645489  0.86020544     0.39300
C3174       C  0.61188929  0.96109563  0.82815683     0.36200
C3175       C  0.53569565  0.86592095  0.84147419     0.36900
C3176       C  0.65160754  0.93750480  0.89437374     0.40100
N3177       N  0.98720343  0.99816634  0.86962397    -0.38000
N3178       N  0.50466098  0.91714632  0.88730152    -0.39500
N3179       N  0.61212994  0.03462986  0.80497899    -0.37300
N3180       N  0.63791612  0.95928775  0.82298576    -0.39700
N3181       N  0.62904799  0.50818254  0.88169527    -0.39500
N3182       N  0.67540030  0.95518975  0.90454178    -0.37100
N3183       N  0.54739383  0.79222225  0.85482774    -0.38100
N3184       N  0.01203293  0.85139227  0.83084815    -0.39800
C3185       C  0.60136544  0.69944892  0.86521750    -0.04700
C3186       C  0.57823097  0.69669658  0.85069318     0.09400
C3187       C  0.58245941  0.73013955  0.84329567    -0.02100
C3188       C  0.60639788  0.76544846  0.85148199    -0.00400
C3189       C  0.62318965  0.76730666  0.86825947    -0.04000
C3190       C  0.62550710  0.73472398  0.87313849     0.03000
C3191       C  0.55644228  0.65951281  0.84123586     0.09900
C3192       C  0.56335746  0.72855419  0.82685061     0.35800
C3193       C  0.65767884  0.73764682  0.88315106     0.39200
C3194       C  0.52000173  0.63229001  0.84665696    -0.04400
C3195       C  0.50156397  0.59586261  0.83886684     0.02800
C3196       C  0.51922427  0.58643264  0.82521166    -0.04000
C3197       C  0.55695277  0.61341495  0.82079945    -0.00200
C3198       C  0.57487675  0.64977955  0.82838799    -0.02700
C3199       C  0.50136528  0.64199671  0.86021663     0.36500
C3200       C  0.57950251  0.60373714  0.80960882     0.40100
C3201       C  0.96397324  0.56888953  0.84467245     0.39300
C3202       C  0.61333306  0.67711843  0.82348832     0.36200
C3203       C  0.60273071  0.66617701  0.87107763     0.36900
C3204       C  0.61783409  0.79868650  0.84106070     0.40100
N3205       N  0.93384670  0.54785592  0.84944247    -0.38000
N3206       N  0.48632865  0.64969578  0.87098596    -0.39500
N3207       N  0.60053714  0.59890854  0.80130847    -0.37300
N3208       N  0.64398782  0.69902794  0.81972530    -0.39700
N3209       N  0.04880197  0.72829569  0.81366118    -0.39500
N3210       N  0.62667661  0.82432024  0.83206952    -0.37100
N3211       N  0.68261583  0.73581579  0.89005515    -0.38100
N3212       N  0.60418303  0.63971229  0.87546374    -0.39800
C3213       C  0.86517625  0.93654587  0.85216033    -0.04700
C3214       C  0.83231682  0.93677281  0.84510823     0.09400
C3215       C  0.83627475  0.95538395  0.82904473    -0.02100
C3216       C  0.87272347  0.97674092  0.82179562    -0.00400
C3217       C  0.90353541  0.97080203  0.82704455    -0.04000
C3218       C  0.89797793  0.94823219  0.84191344     0.03000
C3219       C  0.79422252  0.91679076  0.85429587     0.09900
C3220       C  0.80318200  0.95220040  0.81951597     0.35800
C3221       C  0.92148404  0.93098245  0.84524224     0.39200
C3222       C  0.77131587  0.93405616  0.85700236    -0.04400
C3223       C  0.73470902  0.91334803  0.86425107     0.02800
C3224       C  0.72571145  0.88080637  0.87414183    -0.04000
C3225       C  0.74962371  0.86452315  0.87227014    -0.00200
C3226       C  0.78035662  0.87983270  0.86058693    -0.02700
C3227       C  0.78562114  0.97353784  0.85333777     0.36500
C3228       C  0.74410476  0.83275003  0.88251031     0.40100
C3229       C  0.70731906  0.92638551  0.86140887     0.39300
C3230       C  0.79674687  0.85690991  0.85467708     0.36200
C3231       C  0.86559493  0.92417186  0.86990192     0.36900
C3232       C  0.87807518  0.00674832  0.81020213     0.40100
N3233       N  0.68661793  0.93778755  0.85803891    -0.38000
N3234       N  0.79686677  0.50503581  0.85048172    -0.39500
N3235       N  0.74274872  0.80849370  0.89078216    -0.37300
N3236       N  0.80961405  0.83855220  0.84983519    -0.39700
N3237       N  0.77700569  0.95009461  0.81187832    -0.39500
N3238       N  0.87985790  0.03076553  0.80155117    -0.37100
N3239       N  0.93734303  0.91416131  0.84806686    -0.38100
N3240       N  0.86597394  0.91444212  0.88407331    -0.39800
C3241       C  0.77148336  0.88967323  0.75611486    -0.04700
C3242       C  0.80922614  0.90439239  0.75029777     0.09400
C3243       C  0.81601344  0.90707486  0.73212522    -0.00600
C3244       C  0.78605398  0.89921275  0.71999132    -0.00400
C3245       C  0.74879402  0.88738277  0.72590456    -0.04000
C3246       C  0.74127181  0.88062610  0.74396158     0.03000
C3247       C  0.84227767  0.92347354  0.76302198     0.09900
C3248       C  0.85443186  0.92003145  0.72601613     0.35800
C3249       C  0.70274148  0.86614379  0.75025352     0.39200
C3250       C  0.85164083  0.90332293  0.77531202    -0.04400
C3251       C  0.88228450  0.92261329  0.78749529     0.02800
C3252       C  0.90569902  0.96217309  0.78673515    -0.04000
C3253       C  0.89674512  0.98179050  0.77370230    -0.00200
C3254       C  0.86428108  0.96280318  0.76268303    -0.02700
C3255       C  0.83013106  0.86262614  0.77517256     0.36500
C3256       C  0.91847433  0.52191509  0.77158449     0.40100
C3257       C  0.88945588  0.90113223  0.80058594     0.39300
C3258       C  0.85310214  0.98407669  0.75092051     0.36200
C3259       C  0.76383062  0.88531554  0.77466889     0.36900
C3260       C  0.79364234  0.90337172  0.70142327     0.40100
N3261       N  0.89344439  0.88262463  0.81094111    -0.38000
N3262       N  0.81298459  0.83013800  0.77501405    -0.39500
N3263       N  0.93138376  0.55339297  0.76829631    -0.37300
N3264       N  0.84433342  0.00100112  0.74155548    -0.39700
N3265       N  0.88518021  0.43053732  0.72123036    -0.39500
N3266       N  0.79971460  0.90674778  0.68661167    -0.37100
N3267       N  0.67202152  0.85441428  0.75528509    -0.38100
N3268       N  0.75742698  0.88126144  0.78943532    -0.39800
C3269       C  0.51231976  0.64086053  0.77959014    -0.04700
C3270       C  0.53440034  0.64442817  0.76496988     0.09400
C3271       C  0.53668617  0.61315476  0.75876491    -0.02100
C3272       C  0.51763704  0.57880789  0.76740693    -0.00400
C3273       C  0.50438262  0.57763510  0.78471007    -0.04000
C3274       C  0.49740362  0.60773350  0.78951824     0.03000
C3275       C  0.55128151  0.67903161  0.75437616     0.09900
C3276       C  0.55662262  0.61564221  0.74268878     0.35800
C3277       C  0.46903398  0.60253088  0.80227957     0.39200
C3278       C  0.59120979  0.70205680  0.75462511    -0.04400
C3279       C  0.60856892  0.72816209  0.74126484     0.02800
C3280       C  0.58576650  0.73207212  0.72801081    -0.04000
C3281       C  0.54570360  0.71231207  0.72903295    -0.00200
C3282       C  0.52839638  0.68480806  0.74185666    -0.02700
C3283       C  0.61441380  0.69708342  0.76802481     0.36500
C3284       C  0.52243179  0.72141925  0.71744265     0.40100
C3285       C  0.64990548  0.74967834  0.74071852     0.39300
C3286       C  0.98734940  0.66105205  0.74159574     0.36200
C3287       C  0.50230693  0.66990336  0.78342774     0.36900
C3288       C  0.00493543  0.54553720  0.75643675     0.40100
N3289       N  0.68285005  0.76680877  0.74026409    -0.38000
N3290       N  0.63288480  0.69298906  0.77867990    -0.39500
N3291       N  0.50367826  0.72923169  0.70859407    -0.37300
N3292       N  0.95455284  0.64206295  0.74144007    -0.39700
N3293       N  0.57273526  0.61781670  0.72996397    -0.39500
N3294       N  0.99487742  0.52015675  0.74689880    -0.37100
N3295       N  0.44618216  0.60015190  0.81199100    -0.38100
N3296       N  0.49319962  0.69244060  0.78600581    -0.39800
C3297       C  0.53201540  0.91537986  0.78364800    -0.04700
C3298       C  0.55562457  0.93453653  0.76957941     0.09400
C3299       C  0.56253484  0.97098122  0.76577602    -0.02100
C3300       C  0.54790864  0.98911833  0.77645445    -0.00400
C3301       C  0.52303161  0.97000172  0.79039349    -0.04000
C3302       C  0.51485467  0.93246056  0.79365018     0.03000
C3303       C  0.57368898  0.91705929  0.75848414     0.09900
C3304       C  0.58556776  0.99028040  0.75081099     0.35800
C3305       C  0.48910682  0.91108234  0.80731197     0.39200
C3306       C  0.55194910  0.89049666  0.74530534    -0.04400
C3307       C  0.56994205  0.87848847  0.73305305     0.02800
C3308       C  0.61022055  0.89442022  0.73331224    -0.04000
C3309       C  0.63185533  0.92034340  0.74681606    -0.00200
C3310       C  0.61358248  0.93101511  0.75950235    -0.02700
C3311       C  0.51129585  0.87738415  0.74367092     0.36500
C3312       C  0.67305632  0.93639232  0.74765424     0.40100
C3313       C  0.54695922  0.85118140  0.71961311     0.39300
C3314       C  0.63611184  0.95782981  0.77318810     0.36200
C3315       C  0.52563082  0.87806085  0.78777358     0.36900
C3316       C  0.56330614  0.52901367  0.77391294     0.40100
N3317       N  0.52857059  0.82924271  0.70895833    -0.38000
N3318       N  0.97877373  0.86698448  0.74231045    -0.39500
N3319       N  0.70593550  0.94941438  0.74829342    -0.37300
N3320       N  0.65421932  0.47982969  0.78393397    -0.39700
N3321       N  0.60393313  0.00557967  0.73892057    -0.39500
N3322       N  0.57921181  0.56057981  0.77058073    -0.37100
N3323       N  0.46910310  0.89327810  0.81827982    -0.38100
N3324       N  0.52087253  0.84830141  0.79087945    -0.39800
C3325       C  0.72014540  0.70982001  0.40819932    -0.04700
C3326       C  0.73993219  0.74083821  0.41970310     0.09400
C3327       C  0.78012980  0.76115863  0.41951241    -0.02100
C3328       C  0.80016750  0.75326711  0.40671374    -0.00400
C3329       C  0.78041974  0.72280375  0.39479133    -0.04000
C3330       C  0.74036239  0.70008296  0.39615779     0.03000
C3331       C  0.71850234  0.75611089  0.42969369     0.09900
C3332       C  0.80129827  0.79057140  0.43238675     0.35800
C3333       C  0.71946878  0.66770605  0.38467811     0.39200
C3334       C  0.69736896  0.73801510  0.44450659    -0.04400
C3335       C  0.67697497  0.75301439  0.45338805     0.02800
C3336       C  0.68157338  0.78892427  0.44900015    -0.04000
C3337       C  0.69643718  0.80240285  0.43205676    -0.00200
C3338       C  0.71614707  0.78703912  0.42297957    -0.02700
C3339       C  0.69699381  0.70422775  0.45074471     0.36500
C3340       C  0.68864877  0.82858899  0.42244049     0.40100
C3341       C  0.64875567  0.72948125  0.46579767     0.39300
C3342       C  0.73360993  0.80271672  0.40635312     0.36200
C3343       C  0.67877228  0.68894892  0.40824266     0.36900
C3344       C  0.84128984  0.77697399  0.40590418     0.40100
N3345       N  0.62610208  0.70893256  0.47524893    -0.38000
N3346       N  0.69683246  0.67735742  0.45576483    -0.39500
N3347       N  0.68264129  0.84876438  0.41396096    -0.37300
N3348       N  0.74750521  0.81513274  0.39312514    -0.39700
N3349       N  0.81977772  0.81386622  0.44248739    -0.39500
N3350       N  0.87398761  0.79615407  0.40522422    -0.37100
N3351       N  0.70268473  0.64165747  0.37565208    -0.38100
N3352       N  0.64577145  0.67243042  0.40833037    -0.39800
C3353       C  0.99236640  0.75052545  0.40213933    -0.04700
C3354       C  0.48532436  0.75278299  0.42011117     0.09400
C3355       C  0.94795769  0.74189191  0.42539005    -0.02100
C3356       C  0.91805486  0.73047250  0.41281730    -0.00400
C3357       C  0.92570279  0.73111617  0.39480924    -0.04000
C3358       C  0.96283718  0.74062650  0.38952676     0.03000
C3359       C  0.51836275  0.77087981  0.43289127     0.09900
C3360       C  0.94036906  0.74367153  0.44374261     0.35800
C3361       C  0.97070649  0.74038420  0.37108457     0.39200
C3362       C  0.54442631  0.80936267  0.43135394    -0.04400
C3363       C  0.57802324  0.82631664  0.44179656     0.02800
C3364       C  0.58427214  0.80607814  0.45544857    -0.04000
C3365       C  0.55688170  0.76759553  0.45738815    -0.00200
C3366       C  0.52465992  0.74999186  0.44592714    -0.02700
C3367       C  0.53650060  0.83170890  0.41885222     0.36500
C3368       C  0.56185627  0.74520372  0.47072770     0.40100
C3369       C  0.60544624  0.86483524  0.43804780     0.39300
C3370       C  0.99848437  0.71000822  0.44717781     0.36200
C3371       C  0.53021013  0.75939375  0.39672405     0.36900
C3372       C  0.87969263  0.71944050  0.41842564     0.40100
N3373       N  0.62576765  0.89520606  0.43375731    -0.38000
N3374       N  0.53004587  0.84939035  0.40891382    -0.39500
N3375       N  0.56410230  0.72622723  0.48136103    -0.37300
N3376       N  0.97739574  0.67818694  0.44821171    -0.39700
N3377       N  0.93414367  0.74479269  0.45838715    -0.39500
N3378       N  0.84909056  0.71030739  0.42301021    -0.37100
N3379       N  0.97696880  0.74038355  0.35636698    -0.38100
N3380       N  0.56052265  0.76658395  0.39242838    -0.39800
C3381       C  0.74249731  0.95477524  0.43241948    -0.04700
C3382       C  0.72681524  0.97882926  0.43419588     0.09400
C3383       C  0.69976169  0.97192170  0.44707785    -0.02100
C3384       C  0.68797965  0.94055848  0.45809711    -0.00400
C3385       C  0.70201875  0.91477919  0.45576781    -0.04000
C3386       C  0.73031354  0.92305549  0.44310417     0.03000
C3387       C  0.73909500  0.01112376  0.42209277     0.09900
C3388       C  0.68281910  0.49620822  0.44833053     0.35800
C3389       C  0.74859118  0.90039709  0.44091692     0.39200
C3390       C  0.72033385  0.50580097  0.40567828    -0.04400
C3391       C  0.73697561  0.53289315  0.39257163     0.02800
C3392       C  0.77284869  0.56508819  0.39570356    -0.04000
C3393       C  0.78994786  0.57181293  0.41263677    -0.00200
C3394       C  0.77295594  0.54484450  0.42578988    -0.02700
C3395       C  0.68464467  0.47171135  0.40212074     0.36500
C3396       C  0.82625029  0.60514312  0.41628189     0.40100
C3397       C  0.71711064  0.52766305  0.37587294     0.39300
C3398       C  0.79105890  0.05092286  0.44302819     0.36200
C3399       C  0.77102455  0.96254934  0.41922987     0.36900
C3400       C  0.65964904  0.93434680  0.47098590     0.40100
N3401       N  0.70124264  0.52363981  0.36257736    -0.38000
N3402       N  0.65611535  0.94461217  0.39930011    -0.39500
N3403       N  0.85528631  0.63159660  0.41925060    -0.37300
N3404       N  0.80538563  0.05563413  0.45676166    -0.39700
N3405       N  0.66900052  0.51536692  0.44924823    -0.39500
N3406       N  0.63729062  0.93153935  0.48106421    -0.37100
N3407       N  0.76549341  0.88491448  0.43773996    -0.38100
N3408       N  0.79368234  0.96881795  0.40871110    -0.39800
C3409       C  0.78215156  0.75843152  0.58510529    -0.04700
C3410       C  0.75821401  0.73792296  0.59877178     0.09400
C3411       C  0.75004206  0.70056762  0.60141654    -0.02100
C3412       C  0.76517876  0.68352293  0.59029887    -0.00400
C3413       C  0.79072220  0.70431755  0.57690219    -0.04000
C3414       C  0.79978514  0.74252759  0.57480241     0.03000
C3415       C  0.74189906  0.75554966  0.61073201     0.09900
C3416       C  0.72608854  0.67967547  0.61582443     0.35800
C3417       C  0.83010249  0.76754234  0.56361691     0.39200
C3418       C  0.70270372  0.74464679  0.60948453    -0.04400
C3419       C  0.68606302  0.75706863  0.62216291     0.02800
C3420       C  0.70854943  0.78064983  0.63613686    -0.04000
C3421       C  0.74813563  0.79327211  0.63687480    -0.00200
C3422       C  0.76480752  0.78075021  0.62419515    -0.02700
C3423       C  0.67929067  0.71969026  0.59540194     0.36500
C3424       C  0.77131771  0.81758309  0.65117662     0.40100
C3425       C  0.64561762  0.74527817  0.62091593     0.39300
C3426       C  0.80527772  0.79275594  0.62535811     0.36200
C3427       C  0.78907495  0.79632607  0.58181734     0.36900
C3428       C  0.75336894  0.64424643  0.59284799     0.40100
N3429       N  0.61335987  0.73582030  0.61987977    -0.38000
N3430       N  0.66058644  0.69955496  0.58423752    -0.39500
N3431       N  0.78979641  0.83685027  0.66262781    -0.37300
N3432       N  0.83761791  0.80254842  0.62628913    -0.39700
N3433       N  0.70700904  0.66319091  0.62732934    -0.39500
N3434       N  0.74223252  0.61279790  0.59566966    -0.37100
N3435       N  0.85408781  0.78966743  0.55518523    -0.38100
N3436       N  0.79447579  0.82645635  0.57910601    -0.39800
C3437       C  0.54047220  0.78489101  0.61353247    -0.04700
C3438       C  0.00492133  0.75366077  0.61670791     0.09400
C3439       C  0.49944716  0.73348467  0.63238826    -0.02100
C3440       C  0.52948577  0.74486491  0.64483403    -0.00400
C3441       C  0.56605907  0.77584337  0.64154024    -0.04000
C3442       C  0.57128679  0.79554244  0.62558939     0.03000
C3443       C  0.97287899  0.74035993  0.60346659     0.09900
C3444       C  0.96293400  0.70087811  0.63549576     0.35800
C3445       C  0.60874726  0.82511520  0.62081193     0.39200
C3446       C  0.97108695  0.71715364  0.58939835    -0.04400
C3447       C  0.93889925  0.70113312  0.57794349     0.02800
C3448       C  0.90793395  0.70847146  0.58035829    -0.04000
C3449       C  0.90994148  0.73141507  0.59486554    -0.00200
C3450       C  0.94245230  0.74764521  0.60609109    -0.02700
C3451       C  0.50170084  0.70813829  0.58736211     0.36500
C3452       C  0.87918647  0.73919125  0.59861576     0.40100
C3453       C  0.93662662  0.67422019  0.56487704     0.39300
C3454       C  0.94447467  0.77154959  0.62068216     0.36200
C3455       C  0.54542847  0.80603082  0.59764209     0.36900
C3456       C  0.52221548  0.72385692  0.66089861     0.40100
N3457       N  0.93610020  0.65299869  0.55462223    -0.38000
N3458       N  0.52620969  0.70104314  0.58590043    -0.39500
N3459       N  0.85586321  0.74645298  0.60269909    -0.37300
N3460       N  0.94605855  0.79052402  0.63232967    -0.39700
N3461       N  0.93384654  0.67461738  0.63799969    -0.39500
N3462       N  0.51611609  0.70641369  0.67350611    -0.37100
N3463       N  0.63856418  0.84844555  0.61677064    -0.38100
N3464       N  0.04951386  0.82301507  0.58489444    -0.39800
C3465       C  0.75102193  0.96654761  0.61128009    -0.04700
C3466       C  0.74866750  0.49980789  0.61289396     0.09400
C3467       C  0.73251771  0.50614237  0.62789866    -0.02100
C3468       C  0.71881517  0.97939499  0.64128185    -0.00400
C3469       C  0.72201265  0.94633664  0.63994466    -0.04000
C3470       C  0.73802542  0.93991275  0.62481982     0.03000
C3471       C  0.76678735  0.53046737  0.59983528     0.09900
C3472       C  0.73074257  0.54077520  0.62973740     0.35800
C3473       C  0.74312293  0.90703603  0.62357648     0.39200
C3474       C  0.74619047  0.53186308  0.58504395    -0.04400
C3475       C  0.76185306  0.56371428  0.57415473     0.02800
C3476       C  0.79905680  0.59431930  0.57773313    -0.04000
C3477       C  0.81965999  0.59184375  0.59256954    -0.00200
C3478       C  0.80358850  0.56018788  0.60342286    -0.02700
C3479       C  0.70818225  0.50088948  0.58148787     0.36500
C3480       C  0.85794682  0.62085706  0.59701136     0.40100
C3481       C  0.73788991  0.56575446  0.56028892     0.39300
C3482       C  0.82472853  0.55831693  0.61870159     0.36200
C3483       C  0.76826941  0.96047629  0.59596831     0.36900
C3484       C  0.70139304  0.98602605  0.65641631     0.40100
N3485       N  0.71788963  0.56621028  0.54931164    -0.38000
N3486       N  0.67790182  0.47599940  0.57878148    -0.39500
N3487       N  0.88846194  0.64194707  0.60187917    -0.37300
N3488       N  0.84136017  0.55673502  0.63090694    -0.39700
N3489       N  0.72959119  0.56849891  0.63129502    -0.39500
N3490       N  0.68759201  0.99136497  0.66849564    -0.37100
N3491       N  0.74746190  0.88097095  0.62259093    -0.38100
N3492       N  0.78204953  0.95562372  0.58375442    -0.39800
C3493       C  0.79398598  0.75348674  0.51886753    -0.04700
C3494       C  0.75370240  0.73637845  0.51763191     0.09400
C3495       C  0.73221727  0.70065285  0.52530126    -0.02100
C3496       C  0.75042868  0.68598443  0.53632360    -0.00400
C3497       C  0.79068144  0.70193658  0.53649775    -0.04000
C3498       C  0.81167508  0.73364370  0.52594248     0.03000
C3499       C  0.73441569  0.75559948  0.50813877     0.09900
C3500       C  0.69164272  0.67825809  0.52146492     0.35800
C3501       C  0.85152198  0.74712576  0.52240384     0.39200
C3502       C  0.74585293  0.77058022  0.49130491    -0.04400
C3503       C  0.73245945  0.79397446  0.48400249     0.02800
C3504       C  0.69869074  0.79284334  0.49014403    -0.04000
C3505       C  0.68327224  0.77193155  0.50553652    -0.00200
C3506       C  0.70444502  0.75925547  0.51571842    -0.02700
C3507       C  0.77024237  0.76097442  0.48113458     0.36500
C3508       C  0.64307886  0.75487702  0.50890037     0.40100
C3509       C  0.75464108  0.81920823  0.47052691     0.39300
C3510       C  0.69466604  0.74964756  0.53384805     0.36200
C3511       C  0.81763939  0.79222393  0.51368444     0.36900
C3512       C  0.72724802  0.65445082  0.54729408     0.40100
N3513       N  0.77425047  0.83880798  0.45994257    -0.38000
N3514       N  0.78937784  0.75287855  0.47304897    -0.39500
N3515       N  0.61093725  0.73765660  0.51185801    -0.37300
N3516       N  0.68696306  0.74212729  0.54833456    -0.39700
N3517       N  0.65932051  0.66026704  0.51833108    -0.39500
N3518       N  0.70773119  0.63008572  0.55626428    -0.37100
N3519       N  0.88299942  0.75916033  0.51848143    -0.38100
N3520       N  0.83658232  0.82313039  0.50962934    -0.39800
C3521       C  0.76658912  0.55154549  0.51334715    -0.04700
C3522       C  0.77489648  0.52347960  0.51926643     0.09400
C3523       C  0.80112585  0.53183282  0.53328066    -0.02100
C3524       C  0.81795998  0.56746825  0.54170468    -0.00400
C3525       C  0.80650677  0.59453036  0.53715115    -0.04000
C3526       C  0.78212081  0.58675141  0.52216663     0.03000
C3527       C  0.75432560  0.98450931  0.51135772     0.09900
C3528       C  0.80997599  0.00318694  0.53936928     0.35800
C3529       C  0.77146795  0.61393471  0.51583725     0.39200
C3530       C  0.77291874  0.97145434  0.50006003    -0.04400
C3531       C  0.75277449  0.93508287  0.49238194     0.02800
C3532       C  0.71318354  0.91200658  0.49507080    -0.04000
C3533       C  0.69571262  0.92403336  0.50769584    -0.00200
C3534       C  0.71612087  0.96007076  0.51562709    -0.02700
C3535       C  0.81292064  0.49542720  0.49634361     0.36500
C3536       C  0.65635047  0.90081393  0.51241684     0.40100
C3537       C  0.77387247  0.92065876  0.48288746     0.39300
C3538       C  0.69745838  0.97234931  0.52811695     0.36200
C3539       C  0.74087909  0.54358572  0.49839108     0.36900
C3540       C  0.84802628  0.57602450  0.55460891     0.40100
N3541       N  0.79245708  0.91024334  0.47593402    -0.38000
N3542       N  0.84489616  0.51448587  0.49347321    -0.39500
N3543       N  0.62514771  0.88499949  0.51698638    -0.37300
N3544       N  0.68223710  0.98190910  0.53798622    -0.39700
N3545       N  0.81685523  0.98010772  0.54410664    -0.39500
N3546       N  0.87175968  0.58115932  0.56482375    -0.37100
N3547       N  0.76258235  0.63484122  0.51003850    -0.38100
N3548       N  0.72023932  0.53715724  0.48651956    -0.39800
C3549       C  0.52302987  0.79990034  0.49947040    -0.04700
C3550       C  0.51865687  0.77643847  0.51362268     0.09400
C3551       C  0.55088159  0.77612667  0.52090542    -0.02100
C3552       C  0.58698089  0.79769159  0.51345628    -0.00400
C3553       C  0.59004847  0.81429372  0.49674951    -0.04000
C3554       C  0.55872159  0.81971640  0.49142463     0.03000
C3555       C  0.98095619  0.75582098  0.52222173     0.09900
C3556       C  0.54696663  0.75419395  0.53641537     0.35800
C3557       C  0.56355204  0.84914156  0.47949053     0.39200
C3558       C  0.95441042  0.71928424  0.51664699    -0.04400
C3559       C  0.91981652  0.69882387  0.52550930     0.02800
C3560       C  0.91095166  0.71530584  0.53990542    -0.04000
C3561       C  0.93703430  0.75339674  0.54451104    -0.00200
C3562       C  0.97213523  0.77298224  0.53601199    -0.02700
C3563       C  0.96308317  0.70268161  0.50177709     0.36500
C3564       C  0.92777677  0.77396930  0.55725263     0.40100
C3565       C  0.89480721  0.66032095  0.51996414     0.39300
C3566       C  0.99933217  0.81124600  0.54131227     0.36200
C3567       C  0.99081964  0.80436185  0.49341298     0.36900
C3568       C  0.61977902  0.80813418  0.52493568     0.40100
N3569       N  0.87610418  0.62983922  0.51485489    -0.38000
N3570       N  0.96998753  0.68958184  0.48987040    -0.39500
N3571       N  0.92251878  0.79202601  0.56739467    -0.37300
N3572       N  0.52119373  0.84165896  0.54555616    -0.39700
N3573       N  0.54372924  0.73643950  0.54868874    -0.39500
N3574       N  0.64487498  0.81621284  0.53482353    -0.37100
N3575       N  0.56483044  0.87214633  0.47024295    -0.38100
N3576       N  0.96518445  0.80802644  0.48877797    -0.39800
loop_ 
_geom_bond_atom_site_label_1 
_geom_bond_atom_site_label_2 
_geom_bond_distance 
_geom_bond_site_symmetry_2 
_ccdc_geom_bond_type 
C1            H2   1.107       .  S
C1            C7   1.560       .  S
C1            C6   1.549       .  S
C1            C5   1.550       .  S
C3            H4   1.108       .  S
C3            C9   1.549       .  S
C3            C8   1.547       .  S
C3           C10   1.548       .  S
C5            C8   1.383       .  D
C5          C878   1.513       .  S
C6            C9   1.379       .  D
C6          C815   1.510       .  S
C7           C10   1.386       .  D
C7          C843   1.525       .  S
C8          C766   1.516       .  S
C9          C731   1.516       .  S
C10         C794   1.518       .  S
C11          H12   1.086       .  S
C11          C17   1.530       .  S
C11          C16   1.553       .  S
C11          C15   1.547       .  S
C13          H14   1.095       .  S
C13          C19   1.540       .  S
C13          C18   1.569       .  S
C13          C20   1.575       .  S
C15          C18   1.399       .  D
C15         C654   1.540       .  S
C16          C19   1.371       .  D
C16         C703   1.508       .  S
C17          C20   1.391       .  D
C17         C682   1.519       .  S
C18         C822   1.530       .  S
C19         C850   1.516       .  S
C20         C871   1.537       .  S
O21         Ni27   1.943       .  S
O21          C42   1.273       .  A
O22         Ni45   1.899       .  S
O22          C31   1.267       .  A
O23         Ni27   1.917       .  S
O23         Ni45   1.907       .  S
O23         Ni39   1.912       .  S
O23          H46   0.966       .  S
C24          O41   1.271       .  A
C24          O33   1.279       .  A
C24         C626   1.495       .  S
O25         Ni44   1.936       .  S
O25          C31   1.274       .  A
O26         Ni44   1.915       .  S
O26          C28   1.269       .  A
Ni27         O30   1.923       .  S
Ni27         O32   1.903       .  S
C28          O38   1.265       .  A
C28         C563   1.488       .  S
O29         Ni45   1.919       .  S
O29          C35   1.274       .  A
O30          C35   1.275       .  A
C31         C787   1.486       .  S
O32          C34   1.269       .  A
O33         Ni44   1.945       .  S
C34          O40   1.274       .  A
C34         C759   1.503       .  S
C35         C738   1.481       .  S
H36          O37   0.966       .  S
O37         Ni45   1.911       .  S
O37         Ni39   1.897       .  S
O37         Ni44   1.918       .  S
O38         Ni39   1.917       .  S
Ni39         O43   1.876       .  S
Ni39         O41   1.905       .  S
O40         Ni45   1.934       .  S
C42          O43   1.256       .  A
C42         C598   1.469       .  S
C47          H48   1.090   1_545  S
C47          C52   1.558       .  S
C47         C947   1.526   1_545  S
C47         C945   1.555   1_545  S
C49          H50   1.088       .  S
C49          C55   1.547       .  S
C49         C948   1.564   1_545  S
C49         C950   1.572   1_545  S
C51         C941   1.555       .  S
C51          C54   1.397       .  D
C51        C2407   1.524       .  S
C52          C55   1.389       .  D
C52        C2379   1.530       .  S
C53         C941   1.526       .  S
C53          C56   1.377       .  D
C53         C570   1.516       .  S
C54         C943   1.564       .  S
C54        C2274   1.549       .  S
C55        C2302   1.523       .  S
C56         C943   1.572       .  S
C56         C535   1.523       .  S
C57          H58   1.091       .  S
C57          C63   1.534       .  S
C57          C62   1.553       .  S
C57          C61   1.567       .  S
C59          H60   1.095       .  S
C59          C65   1.567       .  S
C59          C64   1.544       .  S
C59          C66   1.567       .  S
C61          C64   1.397       .  D
C61         C395   1.542       .  S
C62          C65   1.388       .  D
C62         C423   1.520       .  S
C63          C66   1.376       .  D
C63         C451   1.519       .  S
C64         C542   1.518       .  S
C65         C507   1.541       .  S
C66         C479   1.522       .  S
C67          H68   1.099       .  S
C67          C73   1.548       .  S
C67          C72   1.549       .  S
C67          C71   1.570       .  S
C69          H70   1.104       .  S
C69          C75   1.560       .  S
C69          C74   1.545       .  S
C69          C76   1.546       .  S
C71          C74   1.396       .  D
C71         C311   1.525       .  S
C72          C75   1.390       .  D
C72         C346   1.535       .  S
C73          C76   1.369       .  D
C73         C374   1.506       .  S
C74         C290   1.536       .  S
C75         C262   1.515       .  S
C76         C234   1.512       .  S
C77          H78   1.105       .  S
C77          C83   1.544       .  S
C77         C976   1.548       .  S
C77         C975   1.563       .  S
C79          H80   1.107       .  S
C79          C86   1.546       .  S
C79         C979   1.556       .  S
C79         C978   1.545       .  S
C81         C971   1.563       .  S
C81          C84   1.388       .  D
C81         C339   1.522       .  S
C82         C971   1.548       .  S
C82          C85   1.385       .  D
C82        C2106   1.517   1_455  S
C83          C86   1.373       .  D
C83        C2155   1.502   1_455  S
C84         C973   1.545       .  S
C84         C143   1.521       .  S
C85         C973   1.555       .  S
C85        C1987   1.519   1_455  S
C86        C1959   1.512   1_455  S
O87         Ni93   1.930       .  S
O87         C108   1.271       .  A
O88        Ni111   1.912       .  S
O88          C97   1.267       .  A
O89         Ni93   1.919       .  S
O89        Ni111   1.920       .  S
O89        Ni105   1.926       .  S
O89         H112   0.966       .  S
C90         O107   1.271       .  A
C90          O99   1.276       .  A
C90         C647   1.492       .  S
O91        Ni110   1.925       .  S
O91          C97   1.268       .  A
O92        Ni110   1.906       .  S
O92          C94   1.267       .  A
Ni93         O96   1.937       .  S
Ni93         O98   1.899       .  S
C94         O104   1.268       .  A
C94         C675   1.481       .  S
O95        Ni111   1.906       .  S
O95         C101   1.268       .  A
O96         C101   1.274       .  A
C97         C178   1.495       .  S
O98         C100   1.268       .  A
O99        Ni110   1.928       .  S
C100        O106   1.276       .  A
C100        C150   1.503       .  S
C101        C206   1.485       .  S
H102        O103   0.966       .  S
O103       Ni111   1.906       .  S
O103       Ni105   1.905       .  S
O103       Ni110   1.920       .  S
O104       Ni105   1.924       .  S
Ni105       O109   1.891       .  S
Ni105       O107   1.907       .  S
O106       Ni111   1.945       .  S
C108        O109   1.261       .  A
C108        C710   1.484       .  S
O113       Ni119   1.930   1_556  S
O113        C134   1.273       .  A
O114      Ni1925   1.910       .  S
O114        C123   1.266       .  A
O115       Ni119   1.917       .  S
O115      Ni1031   1.909   1_545  S
O115      Ni1919   1.910   1_455  S
O115        H138   0.969       .  S
C116        O133   1.265       .  A
C116        O125   1.272       .  A
C116        C402   1.486       .  S
O117       Ni136   1.921       .  S
O117        C123   1.271       .  A
O118       Ni136   1.898       .  S
O118       C1908   1.268   1_554  A
Ni119       O122   1.937       .  S
Ni119       O124   1.906       .  S
C120        O130   1.281       .  A
C120       O1906   1.268   1_456  A
C120        C458   1.501       .  S
O121      Ni1031   1.900   1_545  S
O121        C127   1.265       .  A
O122        C127   1.274       .  A
C123        C227   1.493       .  S
O124       C1914   1.269       .  A
O125       Ni136   1.938   1_556  S
C126        O132   1.279       .  A
C126       O1912   1.269       .  A
C126        C283   1.507       .  S
C127        C255   1.479       .  S
H128        O129   0.966       .  S
O129       Ni136   1.919       .  S
O129      Ni1925   1.924       .  S
O129      Ni1025   1.916       .  S
O130      Ni2813   1.959   1_456  S
Ni131      O2812   1.959   1_544  S
Ni131      O1923   1.909   1_554  S
Ni131      O1027   1.901   1_544  S
Ni131      O1903   1.910       .  S
Ni131      O1023   1.916   1_545  S
O132      Ni2819   1.956   1_545  S
O133      Ni1025   1.901   1_556  S
C134        O135   1.268       .  A
C134        C430   1.498       .  S
O135      Ni1919   1.909   1_456  S
Ni137      O1902   1.911       .  S
Ni137      O1015   1.899       .  S
Ni137      O2814   1.956       .  S
Ni137      O1009   1.909       .  S
Ni137      O1917   1.924   1_455  S
C139        C140   1.404       .  A
C139        C144   1.414       .  A
C139        C157   1.452       .  S
C140        C145   1.494       .  S
C140        C141   1.401       .  A
C141        C142   1.407       .  A
C141        C146   1.455       .  S
C142        C143   1.426       .  A
C142        C158   1.445       .  S
C143        C144   1.428       .  A
C144        C147   1.446       .  S
C145        C148   1.408       .  A
C145        C152   1.406       .  A
C146        N163   1.157       .  T
C147        N165   1.156       .  T
C148        C149   1.411       .  A
C148        C153   1.452       .  S
C149        C150   1.423       .  A
C149        C155   1.451       .  S
C150        C151   1.427       .  A
C151        C152   1.409       .  A
C151        C154   1.452       .  S
C152        C156   1.453       .  S
C153        N160   1.157       .  T
C154        N161   1.158       .  T
C155        N159   1.157       .  T
C156       N1056   1.157   1_545  T
C157        N166   1.157       .  T
C158        N164   1.156       .  T
N162       C1050   1.157       .  T
C167        C168   1.403       .  A
C167        C172   1.412       .  A
C167        C185   1.453       .  S
C168        C173   1.498       .  S
C168        C169   1.407       .  A
C169       C1958   1.415       .  A
C169       C1962   1.451       .  S
C170       C1957   1.415       .  A
C170       C1959   1.419   1_455  A
C170        C186   1.444       .  S
C171       C1874   1.512       .  S
C171        C172   1.422       .  A
C171       C1958   1.419       .  A
C172        C175   1.442       .  S
C173        C176   1.410       .  A
C173        C180   1.410       .  A
C174       C1957   1.451       .  S
C174        N191   1.157       .  T
C175        N193   1.155       .  T
C176        C177   1.414       .  A
C176        C181   1.449       .  S
C177        C178   1.418       .  A
C177        C183   1.450       .  S
C178        C179   1.420       .  A
C179        C180   1.408       .  A
C179        C182   1.454       .  S
C180        C184   1.451       .  S
C181       N1976   1.157       .  T
C182        N189   1.158       .  T
C183        N187   1.157       .  T
C184        N190   1.157       .  T
C185        N194   1.157       .  T
C186        N192   1.155       .  T
N188       C1969   1.157       .  T
C195        C196   1.405       .  A
C195        C200   1.411       .  A
C195        C213   1.453       .  S
C196        C201   1.498       .  S
C196        C197   1.405       .  A
C197        C198   1.415       .  A
C197        C202   1.451       .  S
C198        C199   1.427       .  A
C198        C214   1.448       .  S
C199       C1873   1.518       .  S
C199        C200   1.422       .  A
C200       C1991   1.443   1_545  S
C201        C204   1.411       .  A
C201        C208   1.411       .  A
C202        N219   1.157       .  T
C203       C1988   1.443   1_565  S
C203        N221   1.155       .  T
C204        C205   1.412       .  A
C204        C209   1.450       .  S
C205        C206   1.414       .  A
C205        C211   1.450       .  S
C206        C207   1.414       .  A
C207        C208   1.411       .  A
C207        C210   1.451       .  S
C208        C212   1.450       .  S
C209       N2004   1.157       .  T
C210        N217   1.157       .  T
C211        N215   1.157       .  T
C212       N1112   1.157       .  T
C213        N222   1.157       .  T
C214        N220   1.157       .  T
N216       C1997   1.157       .  T
N218       C1106   1.157       .  T
C223        C224   1.409       .  A
C223        C228   1.408       .  A
C223        C241   1.452       .  S
C224        C229   1.499       .  S
C224        C225   1.413       .  A
C225        C226   1.415       .  A
C225        C230   1.451       .  S
C226        C227   1.416       .  A
C226        C242   1.450       .  S
C227        C228   1.417       .  A
C228        C231   1.452       .  S
C229        C232   1.408       .  A
C229        C236   1.405       .  A
C230        N247   1.157       .  T
C231        N249   1.157       .  T
C232        C233   1.416       .  A
C232        C237   1.451       .  S
C233        C234   1.417       .  A
C233        C239   1.442       .  S
C234        C235   1.418       .  A
C235        C236   1.409       .  A
C235        C238   1.438       .  S
C236        C240   1.455       .  S
C237       N2032   1.157       .  T
C238        N245   1.154       .  T
C239        N243   1.155       .  T
C240        N246   1.157       .  T
C241        N250   1.157       .  T
C242        N248   1.157       .  T
N244       C2025   1.157       .  T
C251        C252   1.408       .  A
C251        C256   1.407       .  A
C251        C269   1.450       .  S
C252        C257   1.490       .  S
C252        C253   1.411       .  A
C253        C254   1.410       .  A
C253        C258   1.451       .  S
C254        C255   1.413       .  A
C254        C270   1.451       .  S
C255        C256   1.413       .  A
C256        C259   1.451       .  S
C257        C260   1.403       .  A
C257        C264   1.403       .  A
C258        N275   1.157       .  T
C259        N277   1.157       .  T
C260        C261   1.411       .  A
C260        C265   1.451       .  S
C261        C262   1.427       .  A
C261        C267   1.448       .  S
C262        C263   1.426       .  A
C263        C264   1.409       .  A
C263        C266   1.445       .  S
C264        C268   1.453       .  S
C265        N272   1.157       .  T
C266        N273   1.157       .  T
C267        N271   1.157       .  T
C268        N274   1.157       .  T
C269        N278   1.157       .  T
C270        N276   1.157       .  T
C279        C280   1.411       .  A
C279        C284   1.415       .  A
C279        C297   1.451       .  S
C280        C285   1.505       .  S
C280        C281   1.409       .  A
C281        C282   1.413       .  A
C281       C2074   1.452       .  S
C282        C283   1.425       .  A
C282       C2086   1.452       .  S
C283        C284   1.421       .  A
C284        C287   1.450       .  S
C285        C288   1.405       .  A
C285        C292   1.402       .  A
C286       C2069   1.452       .  S
C286        N303   1.157   1_655  T
C287       N1199   1.157   1_545  T
C288        C289   1.419       .  A
C288        C293   1.452       .  S
C289        C290   1.428       .  A
C289        C295   1.441       .  S
C290        C291   1.430       .  A
C291        C292   1.413       .  A
C291        C294   1.444       .  S
C292        C296   1.455       .  S
C293        N300   1.157       .  T
C294        N301   1.156       .  T
C295        N299   1.156       .  T
C296        N302   1.157       .  T
C297        N306   1.157       .  T
C298       C2070   1.452   1_455  S
C298        N304   1.158       .  T
N305       C1181   1.157       .  T
C307        C308   1.403       .  A
C307        C312   1.410       .  A
C307        C325   1.451       .  S
C308        C313   1.494       .  S
C308        C309   1.404       .  A
C309        C310   1.412       .  A
C309        C314   1.451       .  S
C310        C311   1.426       .  A
C310        C326   1.448       .  S
C311        C312   1.427       .  A
C312        C315   1.446       .  S
C313        C316   1.403       .  A
C313        C320   1.402       .  A
C314        N331   1.157       .  T
C315        N333   1.158       .  T
C316        C317   1.411       .  A
C316        C321   1.453       .  S
C317        C318   1.428       .  A
C317       C1217   1.447       .  S
C318       C1870   1.518       .  S
C318       C2107   1.425       .  A
C319       C2106   1.425       .  A
C319       C2108   1.410       .  A
C319        C322   1.448   1_655  S
C320       C2107   1.410       .  A
C320       C2112   1.450       .  S
C321        N328   1.157       .  T
C322        N329   1.156       .  T
C323       C1211   1.447       .  S
C323        N327   1.157       .  T
C324       C2108   1.450       .  S
C324        N330   1.156   1_655  T
C325        N334   1.156       .  T
C326        N332   1.157       .  T
C335        C336   1.405       .  A
C335        C340   1.413       .  A
C335        C353   1.451       .  S
C336        C341   1.503       .  S
C336        C337   1.407       .  A
C337        C338   1.414       .  A
C337        C342   1.450       .  S
C338        C339   1.424       .  A
C338        C354   1.447       .  S
C339        C340   1.426       .  A
C340        C343   1.448       .  S
C341        C344   1.401       .  A
C341        C348   1.402       .  A
C342        N359   1.156       .  T
C343        N361   1.157       .  T
C344        C345   1.415       .  A
C344        C349   1.452       .  S
C345        C346   1.430       .  A
C345        C351   1.446       .  S
C346        C347   1.431       .  A
C347        C348   1.417       .  A
C347        C350   1.442       .  S
C348        C352   1.454       .  S
C349        N356   1.156       .  T
C350        N357   1.156       .  T
C351        N355   1.156       .  T
C352        N358   1.157       .  T
C353        N362   1.157       .  T
C354        N360   1.157   1_545  T
C363        C364   1.420       .  A
C363       C2156   1.413       .  A
C363       C2169   1.451       .  S
C364        C369   1.520       .  S
C364        C365   1.418       .  A
C365        C366   1.407       .  A
C365        C370   1.449       .  S
C366        C367   1.408       .  A
C366        C382   1.444       .  S
C367       C1871   1.502       .  S
C367       C2156   1.412       .  A
C368       C2151   1.413   1_455  A
C368       C2155   1.412   1_455  A
C368        C371   1.443       .  S
C369        C372   1.420       .  A
C369        C376   1.418       .  A
C370        N387   1.157       .  T
C371        N389   1.155       .  T
C372        C373   1.413       .  A
C372        C377   1.451       .  S
C373        C374   1.413       .  A
C373        C379   1.440       .  S
C374        C375   1.406       .  A
C375        C376   1.405       .  A
C375        C378   1.442       .  S
C376        C380   1.449       .  S
C377        N384   1.157       .  T
C378        N385   1.156       .  T
C379        N383   1.155       .  T
C380        N386   1.157       .  T
C381       C2151   1.451   1_455  S
C381        N390   1.157       .  T
C382        N388   1.156       .  T
C391        C392   1.402       .  A
C391        C396   1.414       .  A
C391        C409   1.452       .  S
C392        C397   1.495       .  S
C392        C393   1.401       .  A
C393        C394   1.410       .  A
C393        C398   1.455       .  S
C394        C395   1.434       .  A
C394        C410   1.447       .  S
C395        C396   1.429       .  A
C396        C399   1.445       .  S
C397        C400   1.413       .  A
C397        C404   1.407       .  A
C398        N415   1.157       .  T
C399        N417   1.157       .  T
C400        C401   1.410       .  A
C400        C405   1.451       .  S
C401        C402   1.414       .  A
C401        C407   1.451       .  S
C402        C403   1.417       .  A
C403        C404   1.410       .  A
C403        C406   1.450       .  S
C404        C408   1.451       .  S
C405        N412   1.157       .  T
C406        N413   1.157       .  T
C407        N411   1.157       .  T
C408        N414   1.157       .  T
C409        N418   1.157       .  T
C410        N416   1.159       .  T
C419        C420   1.406       .  A
C419        C424   1.412       .  A
C419        C437   1.453       .  S
C420        C425   1.500       .  S
C420        C421   1.405       .  A
C421        C422   1.417       .  A
C421        C426   1.451       .  S
C422        C423   1.423       .  A
C422        C438   1.442       .  S
C423        C424   1.420       .  A
C424        C427   1.444       .  S
C425        C428   1.408       .  A
C425        C432   1.411       .  A
C426        N443   1.157   1_455  T
C427        N445   1.157       .  T
C428        C429   1.411       .  A
C428        C433   1.451       .  S
C429        C430   1.419       .  A
C429        C435   1.451       .  S
C430        C431   1.418       .  A
C431        C432   1.415       .  A
C431       C2222   1.450       .  S
C432        C436   1.448       .  S
C433        N440   1.157       .  T
C434       C2219   1.450       .  S
C434        N441   1.157       .  T
C435        N439   1.157   1_556  T
C436       N2230   1.156       .  T
C437        N446   1.157       .  T
C438        N444   1.155       .  T
N442       C2224   1.156       .  T
C447        C448   1.406       .  A
C447        C452   1.411       .  A
C447        C465   1.455       .  S
C448        C453   1.505       .  S
C448        C449   1.411       .  A
C449        C450   1.416       .  A
C449        C454   1.451       .  S
C450        C451   1.419       .  A
C450        C466   1.445       .  S
C451        C452   1.424       .  A
C452        C455   1.444       .  S
C453        C456   1.415       .  A
C453        C460   1.410       .  A
C454        N471   1.157   1_455  T
C455        N473   1.156       .  T
C456        C457   1.414       .  A
C456        C461   1.452       .  S
C457        C458   1.417       .  A
C457       C1357   1.451       .  S
C458        C459   1.424       .  A
C459        C460   1.411       .  A
C459       C2250   1.452   1_455  S
C460       C2252   1.452       .  S
C461        N468   1.157       .  T
C462       C2247   1.452       .  S
C462        N469   1.157       .  T
C463       C1351   1.451   1_545  S
C463        N467   1.158       .  T
C464       C2248   1.452       .  S
C464        N470   1.157       .  T
C465        N474   1.157       .  T
C466        N472   1.156       .  T
C475        C476   1.405       .  A
C475        C480   1.416       .  A
C475        C493   1.451       .  S
C476        C481   1.506       .  S
C476        C477   1.407       .  A
C477        C478   1.416       .  A
C477        C482   1.452       .  S
C478        C479   1.425       .  A
C478        C494   1.446       .  S
C479        C480   1.421       .  A
C480        C483   1.442       .  S
C481        C484   1.405       .  A
C481        C488   1.405       .  A
C482       N1393   1.157       .  T
C483        N501   1.156       .  T
C484        C485   1.417       .  A
C484        C489   1.452       .  S
C485        C486   1.430       .  A
C485       C2279   1.446       .  S
C486       C1842   1.549       .  S
C486        C487   1.424       .  A
C487        C488   1.416       .  A
C487        C490   1.444       .  S
C488        C492   1.451       .  S
C489        N496   1.157       .  T
C490        N497   1.156       .  T
C491       C2273   1.446       .  S
C491        N495   1.158       .  T
C492        N498   1.157       .  T
C493       N2290   1.156       .  T
C494        N500   1.156       .  T
N499       C1376   1.157   1_545  T
N502       C2281   1.156       .  T
C503        C504   1.403       .  A
C503        C508   1.411       .  A
C503        C521   1.453       .  S
C504        C509   1.505       .  S
C504        C505   1.409       .  A
C505        C506   1.419       .  A
C505        C510   1.445       .  S
C506        C507   1.423       .  A
C506        C522   1.447       .  S
C507        C508   1.424       .  A
C508        C511   1.442       .  S
C509        C512   1.410       .  A
C509        C516   1.405       .  A
C510       N2315   1.155       .  T
C511        N529   1.156       .  T
C512        C513   1.419       .  A
C512        C517   1.449       .  S
C513        C514   1.423       .  A
C513       C2307   1.450   1_455  S
C514       C1843   1.523   1_455  S
C514        C515   1.420       .  A
C515        C516   1.411       .  A
C515        C518   1.440       .  S
C516        C520   1.454       .  S
C517        N524   1.157   1_455  T
C518        N525   1.154       .  T
C519       C2301   1.450       .  S
C519        N523   1.157       .  T
C520        N526   1.157       .  T
C521        N530   1.157       .  T
C522        N528   1.158       .  T
N527       C2298   1.155       .  T
C531        C532   1.418       .  A
C531        C536   1.415       .  A
C531        C549   1.451       .  S
C532        C537   1.524       .  S
C532        C533   1.416       .  A
C533        C534   1.413       .  A
C533        C538   1.451       .  S
C534        C535   1.420       .  A
C534        C550   1.443       .  S
C535        C536   1.416       .  A
C536        C539   1.442       .  S
C537        C540   1.418       .  A
C537        C544   1.417       .  A
C538        N555   1.157       .  T
C539        N557   1.156       .  T
C540        C541   1.415       .  A
C540        C545   1.451       .  S
C541        C542   1.418       .  A
C541        C547   1.446       .  S
C542        C543   1.413       .  A
C543        C544   1.415       .  A
C543        C546   1.439       .  S
C544        C548   1.452       .  S
C545       N1446   1.157       .  T
C546        N553   1.154       .  T
C547        N551   1.156       .  T
C548        N554   1.157       .  T
C549        N558   1.157       .  T
C550        N556   1.156       .  T
N552       C1439   1.157   1_545  T
C559        C560   1.411       .  A
C559        C564   1.411       .  A
C559        C577   1.450       .  S
C560        C565   1.502       .  S
C560        C561   1.415       .  A
C561        C562   1.411       .  A
C561        C566   1.451       .  S
C562        C563   1.412       .  A
C562        C578   1.451       .  S
C563        C564   1.418       .  A
C564        C567   1.452       .  S
C565        C568   1.410       .  A
C565        C572   1.405       .  A
C566       N1477   1.157       .  T
C567        N585   1.158       .  T
C568        C569   1.418       .  A
C568        C573   1.450       .  S
C569        C570   1.419       .  A
C569        C575   1.445       .  S
C570        C571   1.425       .  A
C571        C572   1.408       .  A
C571       C1468   1.443       .  S
C572        C576   1.458       .  S
C573        N580   1.157       .  T
C574       C1465   1.443   1_545  S
C574        N581   1.156       .  T
C575        N579   1.156       .  T
C576        N582   1.157       .  T
C577        N586   1.157       .  T
C578        N584   1.157       .  T
N583       C1460   1.157       .  T
C587        C588   1.402       .  A
C587        C592   1.412   1_455  A
C587        C605   1.451       .  S
C588        C593   1.483       .  S
C588        C589   1.401       .  A
C589        C590   1.401       .  A
C589        C594   1.455       .  S
C590        C591   1.426       .  A
C590       C2394   1.448       .  S
C591       C1840   1.530   1_455  S
C591        C592   1.431   1_455  A
C592        C595   1.448       .  S
C593        C596   1.409       .  A
C593        C600   1.411       .  A
C594        N611   1.157       .  T
C595        N613   1.157       .  T
C596        C597   1.404       .  A
C596        C601   1.451       .  S
C597        C598   1.413       .  A
C597        C603   1.452       .  S
C598        C599   1.408       .  A
C599        C600   1.405       .  A
C599        C602   1.449       .  S
C600       C2392   1.451   1_455  S
C601        N608   1.157       .  T
C602        N609   1.157       .  T
C603        N607   1.157       .  T
C604       C2388   1.451       .  S
C604        N610   1.157       .  T
C605        N614   1.157   1_455  T
C606       C2378   1.448       .  S
C606        N612   1.158       .  T
C615        C616   1.410       .  A
C615        C620   1.421       .  A
C615        C633   1.449       .  S
C616        C621   1.505       .  S
C616        C617   1.403       .  A
C617        C618   1.410       .  A
C617        C622   1.456       .  S
C618        C619   1.424       .  A
C618       C1528   1.441       .  S
C619       C1839   1.524       .  S
C619        C620   1.422       .  A
C620        C623   1.445   1_455  S
C621        C624   1.411       .  A
C621        C628   1.414       .  A
C622        N639   1.157       .  T
C623        N641   1.156       .  T
C624        C625   1.414       .  A
C624        C629   1.451       .  S
C625        C626   1.418       .  A
C625        C631   1.451       .  S
C626        C627   1.416       .  A
C627        C628   1.413       .  A
C627        C630   1.452       .  S
C628        C632   1.451       .  S
C629       N2424   1.157   1_455  T
C630        N637   1.158       .  T
C631        N635   1.157       .  T
C632       N1532   1.157       .  T
C633        N642   1.157       .  T
C634       C1512   1.441   1_545  S
C634        N640   1.156       .  T
N636       C2417   1.157       .  T
N638       C1526   1.157       .  T
C643        C644   1.412       .  A
C643        C648   1.413       .  A
C643        C661   1.451       .  S
C644        C649   1.498       .  S
C644        C645   1.410       .  A
C645        C646   1.408       .  A
C645        C650   1.449       .  S
C646        C647   1.418       .  A
C646        C662   1.454       .  S
C647        C648   1.418       .  A
C648        C651   1.450       .  S
C649        C652   1.406       .  A
C649        C656   1.405       .  A
C650        N667   1.157       .  T
C651        N669   1.157       .  T
C652        C653   1.415       .  A
C652        C657   1.450       .  S
C653        C654   1.424       .  A
C653        C659   1.446       .  S
C654        C655   1.432       .  A
C655        C656   1.411       .  A
C655        C658   1.447       .  S
C656        C660   1.455       .  S
C657        N664   1.157       .  T
C658        N665   1.159       .  T
C659        N663   1.156       .  T
C660        N666   1.157       .  T
C661        N670   1.157       .  T
C662        N668   1.158       .  T
C671        C676   1.410       .  A
C671       C2460   1.415       .  A
C671       C2477   1.452       .  S
C672        C677   1.501   1_655  S
C672       C2459   1.415       .  A
C672       C2461   1.412       .  A
C673        C674   1.411       .  A
C673       C2460   1.412       .  A
C673        C678   1.450       .  S
C674        C675   1.414       .  A
C674        C690   1.451       .  S
C675        C676   1.411       .  A
C676        C679   1.451       .  S
C677        C680   1.406       .  A
C677        C684   1.409       .  A
C678        N695   1.157       .  T
C679        N697   1.157       .  T
C680        C681   1.408       .  A
C680        C685   1.455       .  S
C681        C682   1.424       .  A
C681        C687   1.446       .  S
C682        C683   1.421       .  A
C683        C684   1.417       .  A
C683        C686   1.444       .  S
C684       C2476   1.451   1_455  S
C685        N692   1.157       .  T
C686        N693   1.155       .  T
C687        N691   1.155       .  T
C688       C2472   1.451       .  S
C688        N694   1.157       .  T
C689       C2459   1.452   1_455  S
C689        N698   1.157       .  T
C690        N696   1.157       .  T
C699        C700   1.404       .  A
C699        C704   1.408       .  A
C699        C717   1.455       .  S
C700        C705   1.491       .  S
C700        C701   1.403       .  A
C701        C702   1.414       .  A
C701       C1600   1.451       .  S
C702        C703   1.422       .  A
C702        C718   1.445       .  S
C703        C704   1.417       .  A
C704        C707   1.440       .  S
C705       C1602   1.409       .  A
C705       C1606   1.409       .  A
C706       C1595   1.451       .  S
C706        N723   1.157   1_565  T
C707        N725   1.155       .  T
C708        C709   1.408       .  A
C708       C1599   1.409       .  A
C708        C713   1.450   1_545  S
C709        C710   1.414       .  A
C709        C715   1.452       .  S
C710        C711   1.416       .  A
C711        C712   1.410       .  A
C711        C714   1.450       .  S
C712       C1599   1.409       .  A
C712       C1610   1.451       .  S
C713       N1614   1.157       .  T
C714        N721   1.157       .  T
C715        N719   1.157       .  T
C716       C1606   1.451       .  S
C716        N722   1.157       .  T
C717        N726   1.157       .  T
C718        N724   1.156       .  T
N720       C1607   1.157       .  T
C727        C728   1.405       .  A
C727        C732   1.414       .  A
C727        C745   1.452       .  S
C728        C733   1.500       .  S
C728        C729   1.407       .  A
C729        C730   1.412       .  A
C729        C734   1.453       .  S
C730        C731   1.420       .  A
C730        C746   1.445       .  S
C731        C732   1.425       .  A
C732        C735   1.445       .  S
C733        C736   1.411       .  A
C733        C740   1.414       .  A
C734        N751   1.157       .  T
C735        N753   1.156       .  T
C736        C737   1.409       .  A
C736        C741   1.451       .  S
C737        C738   1.412       .  A
C737        C743   1.451       .  S
C738        C739   1.411       .  A
C739        C740   1.413       .  A
C739        C742   1.450       .  S
C740        C744   1.450       .  S
C741        N748   1.157       .  T
C742        N749   1.157       .  T
C743        N747   1.157       .  T
C744        N750   1.157       .  T
C745        N754   1.157       .  T
C746        N752   1.155       .  T
C755        C760   1.414       .  A
C755       C2544   1.408       .  A
C755        C773   1.451       .  S
C756        C761   1.498       .  S
C756       C2543   1.408       .  A
C756       C2545   1.407       .  A
C757        C758   1.409   1_655  A
C757       C2544   1.407   1_655  A
C757       C2550   1.453       .  S
C758        C759   1.423       .  A
C758        C774   1.450       .  S
C759        C760   1.424       .  A
C760        C763   1.451       .  S
C761        C764   1.407       .  A
C761        C768   1.405       .  A
C762       C2545   1.453       .  S
C762        N779   1.157       .  T
C763        N781   1.158       .  T
C764        C765   1.413       .  A
C764       C2557   1.452       .  S
C765        C766   1.425       .  A
C765        C771   1.449       .  S
C766        C767   1.423       .  A
C767        C768   1.412       .  A
C767        C770   1.446       .  S
C768        C772   1.453       .  S
C769       C2552   1.452   1_455  S
C769        N776   1.157       .  T
C770        N777   1.156       .  T
C771        N775   1.157       .  T
C772        N778   1.157       .  T
C773       N2570   1.157       .  T
C774        N780   1.157       .  T
N782       C2561   1.157       .  T
C783        C788   1.413       .  A
C783       C1678   1.411       .  A
C783        C801   1.450       .  S
C784        C789   1.496   1_565  S
C784        C785   1.410   1_565  A
C784       C1677   1.411       .  A
C785       C1680   1.407   1_545  A
C785        C790   1.452       .  S
C786        C787   1.416       .  A
C786       C1679   1.407       .  A
C786        C802   1.452       .  S
C787        C788   1.416       .  A
C788        C791   1.451       .  S
C789        C792   1.406       .  A
C789        C796   1.402       .  A
C790        N807   1.157       .  T
C791        N809   1.157       .  T
C792        C793   1.416       .  A
C792        C797   1.451       .  S
C793        C794   1.425       .  A
C793        C799   1.447       .  S
C794        C795   1.424       .  A
C795        C796   1.409       .  A
C795        C798   1.444       .  S
C796        C800   1.455       .  S
C797        N804   1.157   1_545  T
C798        N805   1.155       .  T
C799        N803   1.157       .  T
C800        N806   1.157       .  T
C801        N810   1.157       .  T
C802        N808   1.157       .  T
C811        C812   1.416       .  A
C811        C816   1.411       .  A
C811        C829   1.452       .  S
C812        C817   1.518       .  S
C812        C813   1.417       .  A
C813        C814   1.415       .  A
C813        C818   1.451       .  S
C814        C815   1.417       .  A
C814        C830   1.447       .  S
C815        C816   1.415       .  A
C816        C819   1.446       .  S
C817        C820   1.412       .  A
C817        C824   1.414       .  A
C818        N835   1.157       .  T
C819        N837   1.156       .  T
C820        C821   1.412       .  A
C820        C825   1.452       .  S
C821        C822   1.420       .  A
C821        C827   1.436       .  S
C822        C823   1.419       .  A
C823        C824   1.413       .  A
C823        C826   1.440       .  S
C824        C828   1.450       .  S
C825        N832   1.157       .  T
C826        N833   1.157       .  T
C827        N831   1.152       .  T
C828        N834   1.157       .  T
C829        N838   1.157       .  T
C830        N836   1.156       .  T
C839        C840   1.410       .  A
C839        C844   1.417       .  A
C839        C857   1.451       .  S
C840       C1739   1.508   1_545  S
C840        C841   1.407       .  A
C841        C842   1.415       .  A
C841       C1740   1.452       .  S
C842        C843   1.425       .  A
C842        C858   1.447       .  S
C843        C844   1.423       .  A
C844        C847   1.447       .  S
C845       C1734   1.508       .  S
C845        C848   1.410       .  A
C845        C852   1.408       .  A
C846       C1735   1.452       .  S
C846        N863   1.157       .  T
C847        N865   1.157       .  T
C848        C849   1.416       .  A
C848       C1747   1.451       .  S
C849        C850   1.418       .  A
C849        C855   1.445       .  S
C850        C851   1.419       .  A
C851        C852   1.414       .  A
C851        C854   1.445       .  S
C852        C856   1.451       .  S
C853       C1742   1.450       .  S
C853        N860   1.157   1_565  T
C854        N861   1.156       .  T
C855        N859   1.156       .  T
C856        N862   1.156       .  T
C857        N866   1.157       .  T
C858        N864   1.157       .  T
C867        C868   1.402       .  A
C867        C872   1.411       .  A
C867       C2673   1.453   1_455  S
C868       C2661   1.492   1_455  S
C868        C869   1.403       .  A
C869        C870   1.410       .  A
C869        C874   1.451       .  S
C870        C871   1.426       .  A
C870        C886   1.447       .  S
C871        C872   1.429       .  A
C872        C875   1.447       .  S
C873       C2656   1.493       .  S
C873        C876   1.404       .  A
C873        C880   1.404       .  A
C874        N891   1.157       .  T
C875        N893   1.157       .  T
C876        C877   1.412       .  A
C876        C881   1.451       .  S
C877        C878   1.424       .  A
C877        C883   1.448       .  S
C878        C879   1.425       .  A
C879        C880   1.409       .  A
C879        C882   1.448       .  S
C880        C884   1.453       .  S
C881        N888   1.157       .  T
C882        N889   1.157       .  T
C883        N887   1.157       .  T
C884       N2678   1.157       .  T
C885       C2655   1.453       .  S
C885        N894   1.157       .  T
C886        N892   1.158       .  T
N890       C2672   1.157   1_455  T
C895        H896   1.107       .  S
C895        C901   1.560       .  S
C895        C900   1.549       .  S
C895        C899   1.550       .  S
C897        H898   1.108       .  S
C897        C903   1.549       .  S
C897        C902   1.547       .  S
C897        C904   1.548       .  S
C899        C902   1.383       .  D
C899       C1772   1.513       .  S
C900        C903   1.379       .  D
C900       C1709   1.510       .  S
C901        C904   1.386       .  D
C901       C1737   1.525       .  S
C902       C1660   1.516       .  S
C903       C1625   1.516       .  S
C904       C1688   1.518       .  S
C905        H906   1.086       .  S
C905        C911   1.530       .  S
C905        C910   1.552       .  S
C905        C909   1.547       .  S
C907        H908   1.095       .  S
C907        C913   1.540       .  S
C907        C912   1.569       .  S
C907        C914   1.575       .  S
C909        C912   1.399       .  D
C909       C1548   1.540       .  S
C910        C913   1.371       .  D
C910       C1597   1.508       .  S
C911        C914   1.391       .  D
C911       C1576   1.519       .  S
C912       C1716   1.530       .  S
C913       C1744   1.517       .  S
C914       C1765   1.537       .  S
O915       Ni921   1.942       .  S
O915        C936   1.273       .  A
O916       Ni939   1.899       .  S
O916        C925   1.267       .  A
O917       Ni921   1.917       .  S
O917       Ni939   1.907       .  S
O917       Ni933   1.912       .  S
O917        H940   0.966       .  S
C918        O935   1.271       .  A
C918        O927   1.279       .  A
C918       C1520   1.495       .  S
O919       Ni938   1.936       .  S
O919        C925   1.274       .  A
O920       Ni938   1.915       .  S
O920        C922   1.269       .  A
Ni921       O924   1.923       .  S
Ni921       O926   1.903       .  S
C922        O932   1.266       .  A
C922       C1457   1.488       .  S
O923       Ni939   1.919       .  S
O923        C929   1.274       .  A
O924        C929   1.275       .  A
C925       C1681   1.486       .  S
O926        C928   1.269       .  A
O927       Ni938   1.945       .  S
C928        O934   1.274       .  A
C928       C1653   1.503       .  S
C929       C1632   1.481       .  S
H930        O931   0.966       .  S
O931       Ni939   1.911       .  S
O931       Ni933   1.897       .  S
O931       Ni938   1.918       .  S
O932       Ni933   1.917       .  S
Ni933       O937   1.876       .  S
Ni933       O935   1.905       .  S
O934       Ni939   1.934       .  S
C936        O937   1.256       .  A
C936       C1492   1.469       .  S
C941        H942   1.090       .  S
C941        C946   1.558       .  S
C943        H944   1.088       .  S
C943        C949   1.547       .  S
C945        C948   1.397       .  D
C945       C3301   1.524       .  S
C946        C949   1.389       .  D
C946       C3273   1.530       .  S
C947        C950   1.377       .  D
C947       C1464   1.516       .  S
C948       C3168   1.549       .  S
C949       C3196   1.523       .  S
C950       C1429   1.523       .  S
C951        H952   1.091       .  S
C951        C957   1.533       .  S
C951        C956   1.553       .  S
C951        C955   1.567       .  S
C953        H954   1.095       .  S
C953        C959   1.567       .  S
C953        C958   1.544       .  S
C953        C960   1.567       .  S
C955        C958   1.397       .  D
C955       C1289   1.542       .  S
C956        C959   1.388       .  D
C956       C1317   1.520       .  S
C957        C960   1.376       .  D
C957       C1345   1.519       .  S
C958       C1436   1.519       .  S
C959       C1401   1.541       .  S
C960       C1373   1.522       .  S
C961        H962   1.099       .  S
C961        C967   1.549       .  S
C961        C966   1.549       .  S
C961        C965   1.570       .  S
C963        H964   1.104       .  S
C963        C969   1.560       .  S
C963        C968   1.545       .  S
C963        C970   1.546       .  S
C965        C968   1.396       .  D
C965       C1205   1.525       .  S
C966        C969   1.390       .  D
C966       C1240   1.536       .  S
C967        C970   1.369       .  D
C967       C1268   1.506       .  S
C968       C1184   1.536       .  S
C969       C1156   1.515       .  S
C970       C1128   1.512       .  S
C971        H972   1.105       .  S
C971        C977   1.544   1_545  S
C973        H974   1.107       .  S
C973        C980   1.546   1_545  S
C975        C978   1.388       .  D
C975       C1233   1.522       .  S
C976        C979   1.385       .  D
C976       C3000   1.518   1_455  S
C977        C980   1.373       .  D
C977       C3049   1.502   1_455  S
C978       C1037   1.521       .  S
C979       C2881   1.519   1_455  S
C980       C2853   1.512   1_455  S
O981       Ni987   1.930       .  S
O981       C1002   1.271       .  A
O982      Ni1005   1.913       .  S
O982        C991   1.267       .  A
O983       Ni987   1.919       .  S
O983      Ni1005   1.920       .  S
O983       Ni999   1.926       .  S
O983       H1006   0.966       .  S
C984       O1001   1.271       .  A
C984        O993   1.275       .  A
C984       C1541   1.492       .  S
O985      Ni1004   1.925       .  S
O985        C991   1.268       .  A
O986      Ni1004   1.906       .  S
O986        C988   1.267       .  A
Ni987       O990   1.937       .  S
Ni987       O992   1.900       .  S
C988        O998   1.268       .  A
C988       C1569   1.481       .  S
O989      Ni1005   1.907       .  S
O989        C995   1.269       .  A
O990        C995   1.274       .  A
C991       C1072   1.495       .  S
O992        C994   1.268       .  A
O993      Ni1004   1.928       .  S
C994       O1000   1.276       .  A
C994       C1044   1.503       .  S
C995       C1100   1.486       .  S
H996        O997   0.966       .  S
O997      Ni1005   1.906       .  S
O997       Ni999   1.905       .  S
O997      Ni1004   1.920       .  S
O998       Ni999   1.925       .  S
Ni999      O1003   1.891       .  S
Ni999      O1001   1.907       .  S
O1000     Ni1005   1.945       .  S
C1002      O1003   1.261       .  A
C1002      C1604   1.484       .  S
O1007     Ni1013   1.930   1_556  S
O1007      C1028   1.273       .  A
O1008     Ni2819   1.910       .  S
O1008      C1017   1.267       .  A
O1009     Ni1013   1.917       .  S
O1009     Ni2813   1.909   1_455  S
O1009      H1032   0.969       .  S
C1010      O1027   1.265       .  A
C1010      O1019   1.272       .  A
C1010      C1296   1.486       .  S
O1011     Ni1030   1.921       .  S
O1011      C1017   1.271       .  A
O1012     Ni1030   1.898       .  S
O1012      C2802   1.268   1_554  A
Ni1013     O1016   1.937       .  S
Ni1013     O1018   1.906       .  S
C1014      O2800   1.268   1_456  A
C1014      O1024   1.281       .  A
C1014      C1352   1.501       .  S
O1015      C1021   1.266       .  A
O1016      C1021   1.274       .  A
C1017      C1121   1.493       .  S
O1018      C2808   1.269       .  A
O1019     Ni1030   1.938   1_556  S
C1020      O2806   1.269       .  A
C1020      O1026   1.279       .  A
C1020      C1177   1.507       .  S
C1021      C1149   1.479       .  S
H1022      O1023   0.966       .  S
O1023     Ni2819   1.924       .  S
O1023     Ni1030   1.919       .  S
O1024     Ni1919   1.959   1_466  S
Ni1025     O1918   1.959   1_554  S
Ni1025     O2817   1.909   1_554  S
Ni1025     O2797   1.909       .  S
O1026     Ni1925   1.956       .  S
C1028      O1029   1.268       .  A
C1028      C1324   1.498       .  S
O1029     Ni2813   1.909   1_456  S
Ni1031     O2796   1.911       .  S
Ni1031     O1920   1.956   1_565  S
Ni1031     O2811   1.924   1_455  S
C1033      C1034   1.404       .  A
C1033      C1038   1.414       .  A
C1033      C1051   1.452       .  S
C1034      C1039   1.494       .  S
C1034      C1035   1.401       .  A
C1035      C1036   1.407       .  A
C1035      C1040   1.455       .  S
C1036      C1037   1.426       .  A
C1036      C1052   1.445       .  S
C1037      C1038   1.428       .  A
C1038      C1041   1.446       .  S
C1039      C1042   1.408       .  A
C1039      C1046   1.406       .  A
C1040      N1057   1.157       .  T
C1041      N1059   1.156       .  T
C1042      C1043   1.411       .  A
C1042      C1047   1.452       .  S
C1043      C1044   1.423       .  A
C1043      C1049   1.451       .  S
C1044      C1045   1.427       .  A
C1045      C1046   1.409       .  A
C1045      C1048   1.452       .  S
C1046      C1050   1.453       .  S
C1047      N1054   1.157       .  T
C1048      N1055   1.158       .  T
C1049      N1053   1.157       .  T
C1051      N1060   1.157       .  T
C1052      N1058   1.156       .  T
C1061      C1062   1.403       .  A
C1061      C1066   1.412       .  A
C1061      C1079   1.453       .  S
C1062      C1067   1.498       .  S
C1062      C1063   1.407       .  A
C1063      C2852   1.415       .  A
C1063      C2856   1.451       .  S
C1064      C2851   1.415       .  A
C1064      C2853   1.419   1_455  A
C1064      C1080   1.444       .  S
C1065      C2768   1.512       .  S
C1065      C2852   1.419       .  A
C1065      C1066   1.422       .  A
C1066      C1069   1.442       .  S
C1067      C1070   1.410       .  A
C1067      C1074   1.410       .  A
C1068      C2851   1.451       .  S
C1068      N1085   1.157       .  T
C1069      N1087   1.155       .  T
C1070      C1071   1.414       .  A
C1070      C1075   1.449       .  S
C1071      C1072   1.418       .  A
C1071      C1077   1.450       .  S
C1072      C1073   1.420       .  A
C1073      C1074   1.408       .  A
C1073      C1076   1.454       .  S
C1074      C1078   1.451       .  S
C1075      N2870   1.157       .  T
C1076      N1083   1.158       .  T
C1077      N1081   1.157       .  T
C1078      N1084   1.157       .  T
C1079      N1088   1.157       .  T
C1080      N1086   1.155       .  T
N1082      C2863   1.157       .  T
C1089      C1090   1.405       .  A
C1089      C1094   1.411       .  A
C1089      C1107   1.453       .  S
C1090      C1095   1.498       .  S
C1090      C1091   1.405       .  A
C1091      C1092   1.415       .  A
C1091      C1096   1.451       .  S
C1092      C1093   1.427       .  A
C1092      C1108   1.448       .  S
C1093      C2767   1.518       .  S
C1093      C1094   1.422       .  A
C1094      C2885   1.443       .  S
C1095      C1098   1.411       .  A
C1095      C1102   1.411       .  A
C1096      N1113   1.157       .  T
C1097      C2882   1.443       .  S
C1097      N1115   1.155       .  T
C1098      C1099   1.412       .  A
C1098      C1103   1.450       .  S
C1099      C1100   1.414       .  A
C1099      C1105   1.450       .  S
C1100      C1101   1.414       .  A
C1101      C1102   1.411       .  A
C1101      C1104   1.451       .  S
C1102      C1106   1.450       .  S
C1103      N2898   1.157       .  T
C1104      N1111   1.157       .  T
C1105      N1109   1.157       .  T
C1107      N1116   1.157       .  T
C1108      N1114   1.157       .  T
N1110      C2891   1.157       .  T
C1117      C1118   1.410       .  A
C1117      C1122   1.408       .  A
C1117      C1135   1.452       .  S
C1118      C1123   1.500       .  S
C1118      C1119   1.413       .  A
C1119      C1120   1.415       .  A
C1119      C1124   1.451       .  S
C1120      C1121   1.416       .  A
C1120      C1136   1.450       .  S
C1121      C1122   1.417       .  A
C1122      C1125   1.452       .  S
C1123      C1126   1.408       .  A
C1123      C1130   1.405       .  A
C1124      N1141   1.157       .  T
C1125      N1143   1.157       .  T
C1126      C1127   1.416       .  A
C1126      C1131   1.451       .  S
C1127      C1128   1.417       .  A
C1127      C1133   1.442       .  S
C1128      C1129   1.418       .  A
C1129      C1130   1.409       .  A
C1129      C1132   1.438       .  S
C1130      C1134   1.455       .  S
C1131      N2926   1.157       .  T
C1132      N1139   1.154       .  T
C1133      N1137   1.155       .  T
C1134      N1140   1.157       .  T
C1135      N1144   1.157       .  T
C1136      N1142   1.157       .  T
N1138      C2919   1.157       .  T
C1145      C1146   1.408       .  A
C1145      C1150   1.407       .  A
C1145      C1163   1.450       .  S
C1146      C1151   1.490       .  S
C1146      C1147   1.411       .  A
C1147      C1148   1.410       .  A
C1147      C1152   1.451       .  S
C1148      C1149   1.413       .  A
C1148      C1164   1.451       .  S
C1149      C1150   1.413       .  A
C1150      C1153   1.451       .  S
C1151      C1154   1.403       .  A
C1151      C1158   1.403       .  A
C1152      N1169   1.157       .  T
C1153      N1171   1.157       .  T
C1154      C1155   1.411       .  A
C1154      C1159   1.451       .  S
C1155      C1156   1.427       .  A
C1155      C1161   1.448       .  S
C1156      C1157   1.427       .  A
C1157      C1158   1.409       .  A
C1157      C1160   1.445       .  S
C1158      C1162   1.454       .  S
C1159      N1166   1.157       .  T
C1160      N1167   1.157       .  T
C1161      N1165   1.157       .  T
C1162      N1168   1.157       .  T
C1163      N1172   1.157       .  T
C1164      N1170   1.157       .  T
C1173      C1174   1.411       .  A
C1173      C1178   1.415       .  A
C1173      C1191   1.451       .  S
C1174      C1179   1.505       .  S
C1174      C1175   1.409       .  A
C1175      C1176   1.413       .  A
C1175      C2968   1.452       .  S
C1176      C1177   1.425       .  A
C1176      C2980   1.452       .  S
C1177      C1178   1.421       .  A
C1178      C1181   1.450       .  S
C1179      C1182   1.405       .  A
C1179      C1186   1.402       .  A
C1180      C2963   1.452       .  S
C1180      N1197   1.157   1_655  T
C1182      C1183   1.419       .  A
C1182      C1187   1.452       .  S
C1183      C1184   1.428       .  A
C1183      C1189   1.441       .  S
C1184      C1185   1.430       .  A
C1185      C1186   1.413       .  A
C1185      C1188   1.444       .  S
C1186      C1190   1.455       .  S
C1187      N1194   1.157       .  T
C1188      N1195   1.156       .  T
C1189      N1193   1.156       .  T
C1190      N1196   1.157       .  T
C1191      N1200   1.157       .  T
C1192      C2964   1.452   1_455  S
C1192      N1198   1.158       .  T
C1201      C1202   1.403       .  A
C1201      C1206   1.410       .  A
C1201      C1219   1.451       .  S
C1202      C1207   1.494       .  S
C1202      C1203   1.404       .  A
C1203      C1204   1.412       .  A
C1203      C1208   1.451       .  S
C1204      C1205   1.426       .  A
C1204      C1220   1.448       .  S
C1205      C1206   1.427       .  A
C1206      C1209   1.446       .  S
C1207      C1210   1.403       .  A
C1207      C1214   1.402       .  A
C1208      N1225   1.157       .  T
C1209      N1227   1.158       .  T
C1210      C1211   1.412       .  A
C1210      C1215   1.453       .  S
C1211      C1212   1.428       .  A
C1212      C2764   1.518       .  S
C1212      C3001   1.425       .  A
C1213      C3000   1.425       .  A
C1213      C3002   1.410       .  A
C1213      C1216   1.448   1_655  S
C1214      C3001   1.410       .  A
C1214      C3006   1.450       .  S
C1215      N1222   1.157       .  T
C1216      N1223   1.156       .  T
C1217      N1221   1.157   1_545  T
C1218      C3002   1.450       .  S
C1218      N1224   1.156   1_655  T
C1219      N1228   1.156       .  T
C1220      N1226   1.157       .  T
C1229      C1230   1.405       .  A
C1229      C1234   1.413       .  A
C1229      C1247   1.451       .  S
C1230      C1235   1.503       .  S
C1230      C1231   1.407       .  A
C1231      C1232   1.415       .  A
C1231      C1236   1.450       .  S
C1232      C1233   1.424       .  A
C1232      C1248   1.447       .  S
C1233      C1234   1.426       .  A
C1234      C1237   1.448       .  S
C1235      C1238   1.401       .  A
C1235      C1242   1.402       .  A
C1236      N1253   1.156       .  T
C1237      N1255   1.157       .  T
C1238      C1239   1.415       .  A
C1238      C1243   1.452       .  S
C1239      C1240   1.430       .  A
C1239      C1245   1.446       .  S
C1240      C1241   1.431       .  A
C1241      C1242   1.417       .  A
C1241      C1244   1.442       .  S
C1242      C1246   1.454       .  S
C1243      N1250   1.156       .  T
C1244      N1251   1.156       .  T
C1245      N1249   1.156       .  T
C1246      N1252   1.157       .  T
C1247      N1256   1.157       .  T
C1248      N1254   1.157       .  T
C1257      C1258   1.420       .  A
C1257      C3050   1.413       .  A
C1257      C3063   1.451       .  S
C1258      C1263   1.520       .  S
C1258      C1259   1.418       .  A
C1259      C1260   1.407       .  A
C1259      C1264   1.449       .  S
C1260      C1261   1.408       .  A
C1260      C1276   1.444       .  S
C1261      C2765   1.502       .  S
C1261      C3050   1.412       .  A
C1262      C3045   1.413   1_455  A
C1262      C3049   1.412   1_455  A
C1262      C1265   1.443       .  S
C1263      C1266   1.420       .  A
C1263      C1270   1.418       .  A
C1264      N1281   1.157       .  T
C1265      N1283   1.155       .  T
C1266      C1267   1.413       .  A
C1266      C1271   1.451       .  S
C1267      C1268   1.413       .  A
C1267      C1273   1.440       .  S
C1268      C1269   1.406       .  A
C1269      C1270   1.405       .  A
C1269      C1272   1.442       .  S
C1270      C1274   1.449       .  S
C1271      N1278   1.157       .  T
C1272      N1279   1.156       .  T
C1273      N1277   1.155       .  T
C1274      N1280   1.157       .  T
C1275      C3045   1.451   1_455  S
C1275      N1284   1.157       .  T
C1276      N1282   1.156       .  T
C1285      C1286   1.402       .  A
C1285      C1290   1.414       .  A
C1285      C1303   1.452       .  S
C1286      C1291   1.495       .  S
C1286      C1287   1.401       .  A
C1287      C1288   1.410       .  A
C1287      C1292   1.455       .  S
C1288      C1289   1.435       .  A
C1288      C1304   1.447       .  S
C1289      C1290   1.429       .  A
C1290      C1293   1.445       .  S
C1291      C1294   1.413       .  A
C1291      C1298   1.407       .  A
C1292      N1309   1.157       .  T
C1293      N1311   1.157       .  T
C1294      C1295   1.410       .  A
C1294      C1299   1.451       .  S
C1295      C1296   1.414       .  A
C1295      C1301   1.451       .  S
C1296      C1297   1.417       .  A
C1297      C1298   1.410       .  A
C1297      C1300   1.450       .  S
C1298      C1302   1.451       .  S
C1299      N1306   1.157       .  T
C1300      N1307   1.157       .  T
C1301      N1305   1.157   1_565  T
C1302      N1308   1.157       .  T
C1303      N1312   1.157       .  T
C1304      N1310   1.159       .  T
C1313      C1314   1.406       .  A
C1313      C1318   1.412       .  A
C1313      C1331   1.453       .  S
C1314      C1319   1.500       .  S
C1314      C1315   1.405       .  A
C1315      C1316   1.417       .  A
C1315      C1320   1.451       .  S
C1316      C1317   1.423       .  A
C1316      C1332   1.442       .  S
C1317      C1318   1.420       .  A
C1318      C1321   1.444       .  S
C1319      C1322   1.408       .  A
C1319      C1326   1.411       .  A
C1320      N1337   1.157   1_455  T
C1321      N1339   1.157       .  T
C1322      C1323   1.411       .  A
C1322      C1327   1.451       .  S
C1323      C1324   1.419       .  A
C1323      C1329   1.451       .  S
C1324      C1325   1.418       .  A
C1325      C1326   1.415       .  A
C1325      C3116   1.450       .  S
C1326      C1330   1.448       .  S
C1327      N1334   1.157       .  T
C1328      C3113   1.450       .  S
C1328      N1335   1.157       .  T
C1329      N1333   1.157   1_556  T
C1330      N3124   1.156       .  T
C1331      N1340   1.157       .  T
C1332      N1338   1.155       .  T
N1336      C3118   1.156       .  T
C1341      C1342   1.406       .  A
C1341      C1346   1.411       .  A
C1341      C1359   1.455       .  S
C1342      C1347   1.506       .  S
C1342      C1343   1.411       .  A
C1343      C1344   1.416       .  A
C1343      C1348   1.451       .  S
C1344      C1345   1.419       .  A
C1344      C1360   1.445       .  S
C1345      C1346   1.424       .  A
C1346      C1349   1.444       .  S
C1347      C1350   1.415       .  A
C1347      C1354   1.410       .  A
C1348      N1365   1.157   1_455  T
C1349      N1367   1.156       .  T
C1350      C1351   1.414       .  A
C1350      C1355   1.452       .  S
C1351      C1352   1.417       .  A
C1352      C1353   1.425       .  A
C1353      C1354   1.411       .  A
C1353      C3144   1.452   1_455  S
C1354      C3146   1.452       .  S
C1355      N1362   1.157       .  T
C1356      C3141   1.452       .  S
C1356      N1363   1.157       .  T
C1357      N1361   1.158       .  T
C1358      C3142   1.452       .  S
C1358      N1364   1.157       .  T
C1359      N1368   1.157       .  T
C1360      N1366   1.156       .  T
C1369      C1370   1.405       .  A
C1369      C1374   1.416       .  A
C1369      C1387   1.451       .  S
C1370      C1375   1.506       .  S
C1370      C1371   1.407       .  A
C1371      C1372   1.416       .  A
C1371      C1376   1.452       .  S
C1372      C1373   1.425       .  A
C1372      C1388   1.446       .  S
C1373      C1374   1.421       .  A
C1374      C1377   1.442       .  S
C1375      C1378   1.405       .  A
C1375      C1382   1.405       .  A
C1377      N1395   1.156       .  T
C1378      C1379   1.417       .  A
C1378      C1383   1.452       .  S
C1379      C1380   1.430       .  A
C1379      C3173   1.446       .  S
C1380      C2736   1.549       .  S
C1380      C1381   1.424       .  A
C1381      C1382   1.416       .  A
C1381      C1384   1.444   1_565  S
C1382      C1386   1.451       .  S
C1383      N1390   1.157       .  T
C1384      N1391   1.156       .  T
C1385      C3167   1.446       .  S
C1385      N1389   1.158       .  T
C1386      N1392   1.157       .  T
C1387      N3184   1.156       .  T
C1388      N1394   1.156       .  T
N1396      C3175   1.156       .  T
C1397      C1398   1.403       .  A
C1397      C1402   1.411       .  A
C1397      C1415   1.453       .  S
C1398      C1403   1.505       .  S
C1398      C1399   1.409       .  A
C1399      C1400   1.419       .  A
C1399      C1404   1.445       .  S
C1400      C1401   1.423       .  A
C1400      C1416   1.447       .  S
C1401      C1402   1.424       .  A
C1402      C1405   1.442       .  S
C1403      C1406   1.410       .  A
C1403      C1410   1.405       .  A
C1404      N3209   1.155       .  T
C1405      N1423   1.156       .  T
C1406      C1407   1.419       .  A
C1406      C1411   1.449       .  S
C1407      C1408   1.423       .  A
C1407      C3201   1.450   1_455  S
C1408      C2737   1.523   1_455  S
C1408      C1409   1.420       .  A
C1409      C1410   1.411       .  A
C1409      C1412   1.440       .  S
C1410      C1414   1.454       .  S
C1411      N1418   1.157   1_455  T
C1412      N1419   1.154       .  T
C1413      C3195   1.450       .  S
C1413      N1417   1.157       .  T
C1414      N1420   1.157       .  T
C1415      N1424   1.157       .  T
C1416      N1422   1.158       .  T
N1421      C3192   1.155       .  T
C1425      C1426   1.418       .  A
C1425      C1430   1.415       .  A
C1425      C1443   1.451       .  S
C1426      C1431   1.525       .  S
C1426      C1427   1.416       .  A
C1427      C1428   1.414       .  A
C1427      C1432   1.451       .  S
C1428      C1429   1.420       .  A
C1428      C1444   1.443   1_565  S
C1429      C1430   1.416       .  A
C1430      C1433   1.442       .  S
C1431      C1434   1.418       .  A
C1431      C1438   1.416       .  A
C1432      N1449   1.157       .  T
C1433      N1451   1.156       .  T
C1434      C1435   1.415       .  A
C1434      C1439   1.451       .  S
C1435      C1436   1.418       .  A
C1435      C1441   1.446       .  S
C1436      C1437   1.413       .  A
C1437      C1438   1.415       .  A
C1437      C1440   1.439       .  S
C1438      C1442   1.452       .  S
C1440      N1447   1.154       .  T
C1441      N1445   1.156       .  T
C1442      N1448   1.157       .  T
C1443      N1452   1.157       .  T
C1444      N1450   1.156       .  T
C1453      C1454   1.411       .  A
C1453      C1458   1.411       .  A
C1453      C1471   1.450       .  S
C1454      C1459   1.502       .  S
C1454      C1455   1.415       .  A
C1455      C1456   1.411       .  A
C1455      C1460   1.451       .  S
C1456      C1457   1.412       .  A
C1456      C1472   1.451       .  S
C1457      C1458   1.418       .  A
C1458      C1461   1.452       .  S
C1459      C1462   1.410       .  A
C1459      C1466   1.404       .  A
C1461      N1479   1.158       .  T
C1462      C1463   1.418       .  A
C1462      C1467   1.450       .  S
C1463      C1464   1.419       .  A
C1463      C1469   1.445       .  S
C1464      C1465   1.425       .  A
C1465      C1466   1.408       .  A
C1466      C1470   1.458       .  S
C1467      N1474   1.157       .  T
C1468      N1475   1.156       .  T
C1469      N1473   1.156       .  T
C1470      N1476   1.157   1_565  T
C1471      N1480   1.157       .  T
C1472      N1478   1.157       .  T
C1481      C1482   1.402       .  A
C1481      C1486   1.412   1_455  A
C1481      C1499   1.451       .  S
C1482      C1487   1.483       .  S
C1482      C1483   1.401       .  A
C1483      C1484   1.401       .  A
C1483      C1488   1.455       .  S
C1484      C1485   1.427       .  A
C1484      C3288   1.448       .  S
C1485      C2734   1.530   1_455  S
C1485      C1486   1.431   1_455  A
C1486      C1489   1.448       .  S
C1487      C1490   1.408       .  A
C1487      C1494   1.411       .  A
C1488      N1505   1.157       .  T
C1489      N1507   1.157       .  T
C1490      C1491   1.404       .  A
C1490      C1495   1.451       .  S
C1491      C1492   1.413       .  A
C1491      C1497   1.452       .  S
C1492      C1493   1.408       .  A
C1493      C1494   1.405       .  A
C1493      C1496   1.449       .  S
C1494      C3286   1.451   1_455  S
C1495      N1502   1.157       .  T
C1496      N1503   1.157       .  T
C1497      N1501   1.157       .  T
C1498      C3282   1.451       .  S
C1498      N1504   1.157       .  T
C1499      N1508   1.157   1_455  T
C1500      C3272   1.448       .  S
C1500      N1506   1.158       .  T
C1509      C1510   1.410       .  A
C1509      C1514   1.421       .  A
C1509      C1527   1.449       .  S
C1510      C1515   1.505       .  S
C1510      C1511   1.403       .  A
C1511      C1512   1.410       .  A
C1511      C1516   1.456       .  S
C1512      C1513   1.424       .  A
C1513      C2733   1.524       .  S
C1513      C1514   1.422       .  A
C1514      C1517   1.445   1_455  S
C1515      C1518   1.411       .  A
C1515      C1522   1.414       .  A
C1516      N1533   1.157   1_565  T
C1517      N1535   1.156       .  T
C1518      C1519   1.414       .  A
C1518      C1523   1.450       .  S
C1519      C1520   1.418       .  A
C1519      C1525   1.451       .  S
C1520      C1521   1.416       .  A
C1521      C1522   1.413       .  A
C1521      C1524   1.452       .  S
C1522      C1526   1.451       .  S
C1523      N3318   1.157   1_455  T
C1524      N1531   1.158       .  T
C1525      N1529   1.157       .  T
C1527      N1536   1.157       .  T
C1528      N1534   1.156       .  T
N1530      C3311   1.157       .  T
C1537      C1538   1.412       .  A
C1537      C1542   1.413       .  A
C1537      C1555   1.451       .  S
C1538      C1543   1.498       .  S
C1538      C1539   1.410       .  A
C1539      C1540   1.408       .  A
C1539      C1544   1.449       .  S
C1540      C1541   1.418       .  A
C1540      C1556   1.454       .  S
C1541      C1542   1.418       .  A
C1542      C1545   1.450       .  S
C1543      C1546   1.406       .  A
C1543      C1550   1.405       .  A
C1544      N1561   1.157       .  T
C1545      N1563   1.157       .  T
C1546      C1547   1.415       .  A
C1546      C1551   1.450       .  S
C1547      C1548   1.424       .  A
C1547      C1553   1.446       .  S
C1548      C1549   1.432       .  A
C1549      C1550   1.411       .  A
C1549      C1552   1.447       .  S
C1550      C1554   1.455       .  S
C1551      N1558   1.157       .  T
C1552      N1559   1.159       .  T
C1553      N1557   1.156       .  T
C1554      N1560   1.157       .  T
C1555      N1564   1.157       .  T
C1556      N1562   1.158       .  T
C1565      C3354   1.415       .  A
C1565      C1570   1.410       .  A
C1565      C3371   1.452       .  S
C1566      C1571   1.501   1_655  S
C1566      C3353   1.415       .  A
C1566      C3355   1.412       .  A
C1567      C3354   1.412       .  A
C1567      C1568   1.411       .  A
C1567      C1572   1.450       .  S
C1568      C1569   1.414       .  A
C1568      C1584   1.451       .  S
C1569      C1570   1.411       .  A
C1570      C1573   1.452       .  S
C1571      C1574   1.406       .  A
C1571      C1578   1.409       .  A
C1572      N1589   1.157       .  T
C1573      N1591   1.157       .  T
C1574      C1575   1.408       .  A
C1574      C1579   1.455       .  S
C1575      C1576   1.424       .  A
C1575      C1581   1.446       .  S
C1576      C1577   1.421       .  A
C1577      C1578   1.417       .  A
C1577      C1580   1.444       .  S
C1578      C3370   1.451   1_455  S
C1579      N1586   1.157       .  T
C1580      N1587   1.155       .  T
C1581      N1585   1.155       .  T
C1582      C3366   1.451       .  S
C1582      N1588   1.157       .  T
C1583      C3353   1.452   1_455  S
C1583      N1592   1.157       .  T
C1584      N1590   1.157       .  T
C1593      C1594   1.404       .  A
C1593      C1598   1.408       .  A
C1593      C1611   1.455       .  S
C1594      C1599   1.491   1_565  S
C1594      C1595   1.403       .  A
C1595      C1596   1.414       .  A
C1596      C1597   1.422       .  A
C1596      C1612   1.445       .  S
C1597      C1598   1.417       .  A
C1598      C1601   1.440       .  S
C1600      N1617   1.157       .  T
C1601      N1619   1.155       .  T
C1602      C1603   1.408       .  A
C1602      C1607   1.450       .  S
C1603      C1604   1.414       .  A
C1603      C1609   1.452       .  S
C1604      C1605   1.416       .  A
C1605      C1606   1.410       .  A
C1605      C1608   1.450       .  S
C1608      N1615   1.157       .  T
C1609      N1613   1.157       .  T
C1610      N1616   1.157       .  T
C1611      N1620   1.157       .  T
C1612      N1618   1.156       .  T
C1621      C1622   1.405       .  A
C1621      C1626   1.414       .  A
C1621      C1639   1.452       .  S
C1622      C1627   1.500       .  S
C1622      C1623   1.407       .  A
C1623      C1624   1.412       .  A
C1623      C1628   1.453       .  S
C1624      C1625   1.420       .  A
C1624      C1640   1.445       .  S
C1625      C1626   1.425       .  A
C1626      C1629   1.445       .  S
C1627      C1630   1.411       .  A
C1627      C1634   1.414       .  A
C1628      N1645   1.157       .  T
C1629      N1647   1.156       .  T
C1630      C1631   1.410       .  A
C1630      C1635   1.451       .  S
C1631      C1632   1.412       .  A
C1631      C1637   1.451       .  S
C1632      C1633   1.411       .  A
C1633      C1634   1.413       .  A
C1633      C1636   1.450       .  S
C1634      C1638   1.450       .  S
C1635      N1642   1.157       .  T
C1636      N1643   1.157       .  T
C1637      N1641   1.157       .  T
C1638      N1644   1.157       .  T
C1639      N1648   1.157       .  T
C1640      N1646   1.155       .  T
C1649      C3438   1.408       .  A
C1649      C1654   1.414       .  A
C1649      C1667   1.451       .  S
C1650      C1655   1.498       .  S
C1650      C3437   1.408       .  A
C1650      C3439   1.407       .  A
C1651      C3438   1.407   1_655  A
C1651      C1652   1.409   1_655  A
C1651      C3444   1.453       .  S
C1652      C1653   1.423       .  A
C1652      C1668   1.450       .  S
C1653      C1654   1.424       .  A
C1654      C1657   1.451       .  S
C1655      C1658   1.407       .  A
C1655      C1662   1.405       .  A
C1656      C3439   1.453       .  S
C1656      N1673   1.157       .  T
C1657      N1675   1.158       .  T
C1658      C1659   1.413       .  A
C1658      C3451   1.452       .  S
C1659      C1660   1.425       .  A
C1659      C1665   1.449       .  S
C1660      C1661   1.423       .  A
C1661      C1662   1.411       .  A
C1661      C1664   1.446       .  S
C1662      C1666   1.453       .  S
C1663      C3446   1.452   1_455  S
C1663      N1670   1.157       .  T
C1664      N1671   1.156       .  T
C1665      N1669   1.157       .  T
C1666      N1672   1.157       .  T
C1667      N3464   1.157       .  T
C1668      N1674   1.157       .  T
N1676      C3455   1.157       .  T
C1677      C1682   1.413       .  A
C1677      C1695   1.450       .  S
C1678      C1683   1.495       .  S
C1678      C1679   1.410       .  A
C1679      C1684   1.452       .  S
C1680      C1681   1.416       .  A
C1680      C1696   1.452       .  S
C1681      C1682   1.416       .  A
C1682      C1685   1.451       .  S
C1683      C1686   1.406       .  A
C1683      C1690   1.402       .  A
C1684      N1701   1.157       .  T
C1685      N1703   1.157       .  T
C1686      C1687   1.416       .  A
C1686      C1691   1.451       .  S
C1687      C1688   1.425       .  A
C1687      C1693   1.447       .  S
C1688      C1689   1.424       .  A
C1689      C1690   1.409       .  A
C1689      C1692   1.444       .  S
C1690      C1694   1.455       .  S
C1691      N1698   1.157       .  T
C1692      N1699   1.155       .  T
C1693      N1697   1.157       .  T
C1694      N1700   1.157       .  T
C1695      N1704   1.157       .  T
C1696      N1702   1.157       .  T
C1705      C1706   1.416       .  A
C1705      C1710   1.411       .  A
C1705      C1723   1.452       .  S
C1706      C1711   1.518       .  S
C1706      C1707   1.417       .  A
C1707      C1708   1.415       .  A
C1707      C1712   1.451       .  S
C1708      C1709   1.417       .  A
C1708      C1724   1.447       .  S
C1709      C1710   1.415       .  A
C1710      C1713   1.446       .  S
C1711      C1714   1.412       .  A
C1711      C1718   1.414       .  A
C1712      N1729   1.157       .  T
C1713      N1731   1.156       .  T
C1714      C1715   1.412       .  A
C1714      C1719   1.452       .  S
C1715      C1716   1.420       .  A
C1715      C1721   1.436       .  S
C1716      C1717   1.419       .  A
C1717      C1718   1.413       .  A
C1717      C1720   1.440       .  S
C1718      C1722   1.450       .  S
C1719      N1726   1.157       .  T
C1720      N1727   1.157       .  T
C1721      N1725   1.152       .  T
C1722      N1728   1.157       .  T
C1723      N1732   1.157       .  T
C1724      N1730   1.156       .  T
C1733      C1734   1.410       .  A
C1733      C1738   1.417       .  A
C1733      C1751   1.451       .  S
C1734      C1735   1.407       .  A
C1735      C1736   1.415       .  A
C1736      C1737   1.425       .  A
C1736      C1752   1.447       .  S
C1737      C1738   1.423       .  A
C1738      C1741   1.447       .  S
C1739      C1742   1.410       .  A
C1739      C1746   1.408       .  A
C1740      N1757   1.157   1_545  T
C1741      N1759   1.157       .  T
C1742      C1743   1.416       .  A
C1743      C1744   1.418       .  A
C1743      C1749   1.445       .  S
C1744      C1745   1.420       .  A
C1745      C1746   1.415       .  A
C1745      C1748   1.445       .  S
C1746      C1750   1.451       .  S
C1747      N1754   1.157       .  T
C1748      N1755   1.156       .  T
C1749      N1753   1.156       .  T
C1750      N1756   1.156       .  T
C1751      N1760   1.157       .  T
C1752      N1758   1.157       .  T
C1761      C1762   1.402       .  A
C1761      C1766   1.411       .  A
C1761      C3567   1.453   1_455  S
C1762      C3555   1.492   1_455  S
C1762      C1763   1.403       .  A
C1763      C1764   1.410       .  A
C1763      C1768   1.451       .  S
C1764      C1765   1.426       .  A
C1764      C1780   1.447       .  S
C1765      C1766   1.429       .  A
C1766      C1769   1.447       .  S
C1767      C3550   1.492       .  S
C1767      C1770   1.404       .  A
C1767      C1774   1.404       .  A
C1768      N1785   1.157       .  T
C1769      N1787   1.157       .  T
C1770      C1771   1.412       .  A
C1770      C1775   1.451       .  S
C1771      C1772   1.424       .  A
C1771      C1777   1.448       .  S
C1772      C1773   1.425       .  A
C1773      C1774   1.409       .  A
C1773      C1776   1.448       .  S
C1774      C1778   1.453       .  S
C1775      N1782   1.157       .  T
C1776      N1783   1.157       .  T
C1777      N1781   1.157       .  T
C1778      N3572   1.157       .  T
C1779      C3549   1.453       .  S
C1779      N1788   1.157       .  T
C1780      N1786   1.158       .  T
N1784      C3566   1.157   1_455  T
C1789      H1790   1.107       .  S
C1789      C1795   1.560       .  S
C1789      C1794   1.549       .  S
C1789      C1793   1.550       .  S
C1791      H1792   1.108       .  S
C1791      C1797   1.549       .  S
C1791      C1796   1.547       .  S
C1791      C1798   1.548       .  S
C1793      C1796   1.383       .  D
C1793      C2666   1.513       .  S
C1794      C1797   1.379       .  D
C1794      C2603   1.511       .  S
C1795      C1798   1.386       .  D
C1795      C2631   1.525       .  S
C1796      C2554   1.516       .  S
C1797      C2519   1.516       .  S
C1798      C2582   1.518       .  S
C1799      H1800   1.086       .  S
C1799      C1805   1.530       .  S
C1799      C1804   1.553       .  S
C1799      C1803   1.547       .  S
C1801      H1802   1.095       .  S
C1801      C1807   1.540       .  S
C1801      C1806   1.569       .  S
C1801      C1808   1.575       .  S
C1803      C1806   1.399       .  D
C1803      C2442   1.540       .  S
C1804      C1807   1.371       .  D
C1804      C2491   1.509       .  S
C1805      C1808   1.391       .  D
C1805      C2470   1.519       .  S
C1806      C2610   1.531       .  S
C1807      C2638   1.516       .  S
C1808      C2659   1.537       .  S
O1809     Ni1815   1.942       .  S
O1809      C1830   1.273       .  A
O1810     Ni1833   1.899       .  S
O1810      C1819   1.267       .  A
O1811     Ni1815   1.917       .  S
O1811     Ni1833   1.907       .  S
O1811     Ni1827   1.912       .  S
O1811      H1834   0.966       .  S
C1812      O1829   1.271       .  A
C1812      O1821   1.279       .  A
C1812      C2414   1.495       .  S
O1813     Ni1832   1.936       .  S
O1813      C1819   1.274       .  A
O1814     Ni1832   1.915       .  S
O1814      C1816   1.269       .  A
Ni1815     O1818   1.924       .  S
Ni1815     O1820   1.903       .  S
C1816      O1826   1.266       .  A
C1816      C2351   1.488       .  S
O1817     Ni1833   1.918       .  S
O1817      C1823   1.274       .  A
O1818      C1823   1.275       .  A
C1819      C2575   1.486       .  S
O1820      C1822   1.269       .  A
O1821     Ni1832   1.945       .  S
C1822      O1828   1.274       .  A
C1822      C2547   1.504       .  S
C1823      C2526   1.481       .  S
H1824      O1825   0.966       .  S
O1825     Ni1833   1.911       .  S
O1825     Ni1827   1.897       .  S
O1825     Ni1832   1.918       .  S
O1826     Ni1827   1.917       .  S
Ni1827     O1831   1.876       .  S
Ni1827     O1829   1.905       .  S
O1828     Ni1833   1.934       .  S
C1830      O1831   1.256       .  A
C1830      C2386   1.469       .  S
C1835      H1836   1.090   1_545  S
C1835      C2735   1.526   1_545  S
C1835      C1840   1.558       .  S
C1835      C2733   1.555   1_645  S
C1837      H1838   1.088       .  S
C1837      C1843   1.547       .  S
C1837      C2736   1.563   1_645  S
C1837      C2738   1.572   1_545  S
C1839      C2729   1.555   1_455  S
C1839      C1842   1.397       .  D
C1840      C1843   1.389       .  D
C1841      C2729   1.526       .  S
C1841      C1844   1.377       .  D
C1841      C2358   1.516       .  S
C1842      C2731   1.563   1_455  S
C1844      C2731   1.572       .  S
C1844      C2323   1.522       .  S
C1845      H1846   1.091       .  S
C1845      C1851   1.534       .  S
C1845      C1850   1.553       .  S
C1845      C1849   1.567       .  S
C1847      H1848   1.095       .  S
C1847      C1853   1.568       .  S
C1847      C1852   1.544       .  S
C1847      C1854   1.567       .  S
C1849      C1852   1.397       .  D
C1849      C2183   1.542       .  S
C1850      C1853   1.388       .  D
C1850      C2211   1.520       .  S
C1851      C1854   1.376       .  D
C1851      C2239   1.519       .  S
C1852      C2330   1.518       .  S
C1853      C2295   1.541       .  S
C1854      C2267   1.523       .  S
C1855      H1856   1.099       .  S
C1855      C1861   1.548       .  S
C1855      C1860   1.549       .  S
C1855      C1859   1.570       .  S
C1857      H1858   1.104       .  S
C1857      C1863   1.560       .  S
C1857      C1862   1.545       .  S
C1857      C1864   1.546       .  S
C1859      C1862   1.396       .  D
C1859      C2099   1.524       .  S
C1860      C1863   1.390       .  D
C1860      C2134   1.536       .  S
C1861      C1864   1.369       .  D
C1861      C2162   1.506       .  S
C1862      C2078   1.536       .  S
C1863      C2050   1.515       .  S
C1864      C2022   1.512       .  S
C1865      H1866   1.106       .  S
C1865      C1871   1.544       .  S
C1865      C2764   1.548       .  S
C1865      C2763   1.563       .  S
C1867      H1868   1.107       .  S
C1867      C2767   1.555       .  S
C1867      C2766   1.545       .  S
C1867      C1874   1.546       .  S
C1869      C2759   1.562       .  S
C1869      C1872   1.388       .  D
C1869      C2127   1.522       .  S
C1870      C2759   1.548       .  S
C1870      C1873   1.385       .  D
C1871      C1874   1.373       .  D
C1872      C2761   1.545       .  S
C1872      C1931   1.521       .  S
C1873      C2761   1.556       .  S
O1875     Ni1881   1.931       .  S
O1875      C1896   1.271       .  A
O1876     Ni1899   1.913       .  S
O1876      C1885   1.267       .  A
O1877     Ni1881   1.919       .  S
O1877     Ni1899   1.920       .  S
O1877     Ni1893   1.926       .  S
O1877      H1900   0.966       .  S
C1878      O1895   1.270       .  A
C1878      O1887   1.275       .  A
C1878      C2435   1.492       .  S
O1879     Ni1898   1.924       .  S
O1879      C1885   1.268       .  A
O1880     Ni1898   1.907       .  S
O1880      C1882   1.267       .  A
Ni1881     O1884   1.937       .  S
Ni1881     O1886   1.899       .  S
C1882      O1892   1.268       .  A
C1882      C2463   1.481       .  S
O1883     Ni1899   1.907       .  S
O1883      C1889   1.269       .  A
O1884      C1889   1.274       .  A
C1885      C1966   1.494       .  S
O1886      C1888   1.268       .  A
O1887     Ni1898   1.928       .  S
C1888      O1894   1.276       .  A
C1888      C1938   1.502       .  S
C1889      C1994   1.485       .  S
H1890      O1891   0.966       .  S
O1891     Ni1899   1.906       .  S
O1891     Ni1893   1.905       .  S
O1891     Ni1898   1.920       .  S
O1892     Ni1893   1.925       .  S
Ni1893     O1897   1.891       .  S
Ni1893     O1895   1.907       .  S
O1894     Ni1899   1.945       .  S
C1896      O1897   1.261       .  A
C1896      C2498   1.484       .  S
O1901     Ni1907   1.930   1_556  S
O1901      C1922   1.273       .  A
O1902      C1911   1.267   1_455  A
O1903     Ni1907   1.917       .  S
O1903     Ni2819   1.909   1_545  S
O1903      H1926   0.969       .  S
C1904      O1921   1.265       .  A
C1904      O1913   1.272       .  A
C1904      C2190   1.486       .  S
O1905     Ni1924   1.921       .  S
O1905      C1911   1.271       .  A
O1906     Ni1924   1.898       .  S
Ni1907     O1910   1.938       .  S
Ni1907     O1912   1.906       .  S
C1908      O1918   1.281       .  A
C1908      C2246   1.501       .  S
O1909     Ni2819   1.899   1_545  S
O1909      C1915   1.265       .  A
O1910      C1915   1.274       .  A
C1911      C2015   1.493       .  S
O1913     Ni1924   1.938   1_556  S
C1914      O1920   1.279       .  A
C1914      C2071   1.507   1_455  S
C1915      C2043   1.479       .  S
H1916      O1917   0.966       .  S
O1917     Ni2813   1.916       .  S
O1917     Ni1924   1.919       .  S
Ni1919     O2815   1.901   1_544  S
Ni1919     O2811   1.916   1_545  S
O1921     Ni2813   1.901   1_556  S
C1922      O1923   1.268       .  A
C1922      C2218   1.498       .  S
Ni1925     O2803   1.899       .  S
Ni1925     O2797   1.909       .  S
C1927      C1928   1.404       .  A
C1927      C1932   1.414       .  A
C1927      C1945   1.452       .  S
C1928      C1933   1.494       .  S
C1928      C1929   1.401       .  A
C1929      C1930   1.407       .  A
C1929      C1934   1.455       .  S
C1930      C1931   1.426       .  A
C1930      C1946   1.445       .  S
C1931      C1932   1.428       .  A
C1932      C1935   1.446       .  S
C1933      C1936   1.408       .  A
C1933      C1940   1.406       .  A
C1934      N1951   1.157       .  T
C1935      N1953   1.156       .  T
C1936      C1937   1.411       .  A
C1936      C1941   1.452       .  S
C1937      C1938   1.423       .  A
C1937      C1943   1.451       .  S
C1938      C1939   1.426       .  A
C1939      C1940   1.409       .  A
C1939      C1942   1.452       .  S
C1940      C1944   1.453       .  S
C1941      N1948   1.157       .  T
C1942      N1949   1.158       .  T
C1943      N1947   1.157       .  T
C1944      N2844   1.157   1_545  T
C1945      N1954   1.157       .  T
C1946      N1952   1.156       .  T
N1950      C2838   1.157       .  T
C1955      C1956   1.403       .  A
C1955      C1960   1.411       .  A
C1955      C1973   1.453       .  S
C1956      C1961   1.498       .  S
C1956      C1957   1.407   1_655  A
C1958      C1974   1.444       .  S
C1959      C1960   1.422       .  A
C1960      C1963   1.442       .  S
C1961      C1964   1.410       .  A
C1961      C1968   1.410       .  A
C1962      N1979   1.157       .  T
C1963      N1981   1.155       .  T
C1964      C1965   1.413       .  A
C1964      C1969   1.449       .  S
C1965      C1966   1.417       .  A
C1965      C1971   1.450       .  S
C1966      C1967   1.420       .  A
C1967      C1968   1.408       .  A
C1967      C1970   1.454       .  S
C1968      C1972   1.451       .  S
C1970      N1977   1.158       .  T
C1971      N1975   1.157       .  T
C1972      N1978   1.157       .  T
C1973      N1982   1.157       .  T
C1974      N1980   1.155       .  T
C1983      C1984   1.405       .  A
C1983      C1988   1.411       .  A
C1983      C2001   1.453       .  S
C1984      C1989   1.498       .  S
C1984      C1985   1.405       .  A
C1985      C1986   1.415       .  A
C1985      C1990   1.451       .  S
C1986      C1987   1.427       .  A
C1986      C2002   1.448   1_655  S
C1987      C1988   1.422       .  A
C1989      C1992   1.411       .  A
C1989      C1996   1.411       .  A
C1990      N2007   1.157   1_655  T
C1991      N2009   1.155       .  T
C1992      C1993   1.412       .  A
C1992      C1997   1.450   1_655  S
C1993      C1994   1.414       .  A
C1993      C1999   1.450       .  S
C1994      C1995   1.414       .  A
C1995      C1996   1.411       .  A
C1995      C1998   1.451       .  S
C1996      C2000   1.450       .  S
C1998      N2005   1.157       .  T
C1999      N2003   1.157       .  T
C2000      N2900   1.157       .  T
C2001      N2010   1.157       .  T
C2002      N2008   1.157       .  T
N2006      C2894   1.157       .  T
C2011      C2012   1.410       .  A
C2011      C2016   1.408       .  A
C2011      C2029   1.452       .  S
C2012      C2017   1.500       .  S
C2012      C2013   1.414       .  A
C2013      C2014   1.415       .  A
C2013      C2018   1.451       .  S
C2014      C2015   1.416       .  A
C2014      C2030   1.450       .  S
C2015      C2016   1.417       .  A
C2016      C2019   1.452       .  S
C2017      C2020   1.408       .  A
C2017      C2024   1.405       .  A
C2018      N2035   1.157       .  T
C2019      N2037   1.157       .  T
C2020      C2021   1.416       .  A
C2020      C2025   1.451   1_655  S
C2021      C2022   1.417       .  A
C2021      C2027   1.442       .  S
C2022      C2023   1.418       .  A
C2023      C2024   1.409       .  A
C2023      C2026   1.438       .  S
C2024      C2028   1.455       .  S
C2026      N2033   1.154       .  T
C2027      N2031   1.155       .  T
C2028      N2034   1.157       .  T
C2029      N2038   1.157       .  T
C2030      N2036   1.157       .  T
C2039      C2040   1.408       .  A
C2039      C2044   1.407       .  A
C2039      C2057   1.450       .  S
C2040      C2045   1.490       .  S
C2040      C2041   1.411       .  A
C2041      C2042   1.410       .  A
C2041      C2046   1.451       .  S
C2042      C2043   1.413       .  A
C2042      C2058   1.451       .  S
C2043      C2044   1.413       .  A
C2044      C2047   1.451       .  S
C2045      C2048   1.403       .  A
C2045      C2052   1.403       .  A
C2046      N2063   1.157       .  T
C2047      N2065   1.157       .  T
C2048      C2049   1.411       .  A
C2048      C2053   1.451       .  S
C2049      C2050   1.427       .  A
C2049      C2055   1.448       .  S
C2050      C2051   1.426       .  A
C2051      C2052   1.409       .  A
C2051      C2054   1.445       .  S
C2052      C2056   1.453       .  S
C2053      N2060   1.157       .  T
C2054      N2061   1.157       .  T
C2055      N2059   1.157       .  T
C2056      N2062   1.157       .  T
C2057      N2066   1.157       .  T
C2058      N2064   1.157       .  T
C2067      C2068   1.411       .  A
C2067      C2072   1.414       .  A
C2067      C2085   1.451       .  S
C2068      C2073   1.505       .  S
C2068      C2069   1.409       .  A
C2069      C2070   1.413       .  A
C2070      C2071   1.425       .  A
C2071      C2072   1.421       .  A
C2072      C2075   1.450       .  S
C2073      C2076   1.405       .  A
C2073      C2080   1.402       .  A
C2074      N2091   1.157       .  T
C2075      N2987   1.157   1_545  T
C2076      C2077   1.419       .  A
C2076      C2081   1.452       .  S
C2077      C2078   1.428       .  A
C2077      C2083   1.441       .  S
C2078      C2079   1.430       .  A
C2079      C2080   1.413       .  A
C2079      C2082   1.444       .  S
C2080      C2084   1.455       .  S
C2081      N2088   1.157   1_655  T
C2082      N2089   1.156       .  T
C2083      N2087   1.156       .  T
C2084      N2090   1.157       .  T
C2085      N2094   1.157       .  T
C2086      N2092   1.158       .  T
N2093      C2969   1.157       .  T
C2095      C2096   1.403       .  A
C2095      C2100   1.410       .  A
C2095      C2113   1.451       .  S
C2096      C2101   1.493       .  S
C2096      C2097   1.403       .  A
C2097      C2098   1.412       .  A
C2097      C2102   1.452       .  S
C2098      C2099   1.426       .  A
C2098      C2114   1.448       .  S
C2099      C2100   1.427       .  A
C2100      C2103   1.446       .  S
C2101      C2104   1.403       .  A
C2101      C2108   1.402       .  A
C2102      N2119   1.157       .  T
C2103      N2121   1.158       .  T
C2104      C2105   1.411       .  A
C2104      C2109   1.453       .  S
C2105      C2106   1.428       .  A
C2105      C3005   1.447       .  S
C2107      C2110   1.448       .  S
C2109      N2116   1.157       .  T
C2110      N2117   1.156       .  T
C2111      C2999   1.447       .  S
C2111      N2115   1.157       .  T
C2112      N2118   1.156       .  T
C2113      N2122   1.156       .  T
C2114      N2120   1.157       .  T
C2123      C2124   1.405       .  A
C2123      C2128   1.413       .  A
C2123      C2141   1.451       .  S
C2124      C2129   1.503       .  S
C2124      C2125   1.407       .  A
C2125      C2126   1.414       .  A
C2125      C2130   1.450       .  S
C2126      C2127   1.424       .  A
C2126      C2142   1.447       .  S
C2127      C2128   1.426       .  A
C2128      C2131   1.448       .  S
C2129      C2132   1.401       .  A
C2129      C2136   1.402       .  A
C2130      N2147   1.156       .  T
C2131      N2149   1.157       .  T
C2132      C2133   1.415       .  A
C2132      C2137   1.452       .  S
C2133      C2134   1.430       .  A
C2133      C2139   1.446       .  S
C2134      C2135   1.431       .  A
C2135      C2136   1.417       .  A
C2135      C2138   1.442       .  S
C2136      C2140   1.454       .  S
C2137      N2144   1.156       .  T
C2138      N2145   1.156       .  T
C2139      N2143   1.156       .  T
C2140      N2146   1.157       .  T
C2141      N2150   1.157       .  T
C2142      N2148   1.157   1_545  T
C2151      C2152   1.420       .  A
C2152      C2157   1.520       .  S
C2152      C2153   1.418       .  A
C2153      C2154   1.407       .  A
C2153      C2158   1.449       .  S
C2154      C2155   1.408       .  A
C2154      C2170   1.444       .  S
C2156      C2159   1.443       .  S
C2157      C2160   1.420       .  A
C2157      C2164   1.418       .  A
C2158      N2175   1.157       .  T
C2159      N2177   1.155       .  T
C2160      C2161   1.413       .  A
C2160      C2165   1.451       .  S
C2161      C2162   1.413       .  A
C2161      C2167   1.440       .  S
C2162      C2163   1.406       .  A
C2163      C2164   1.405       .  A
C2163      C2166   1.442       .  S
C2164      C2168   1.449       .  S
C2165      N2172   1.157       .  T
C2166      N2173   1.156       .  T
C2167      N2171   1.155       .  T
C2168      N2174   1.157       .  T
C2169      N2178   1.157       .  T
C2170      N2176   1.156       .  T
C2179      C2180   1.402       .  A
C2179      C2184   1.414       .  A
C2179      C2197   1.452       .  S
C2180      C2185   1.495       .  S
C2180      C2181   1.401       .  A
C2181      C2182   1.411       .  A
C2181      C2186   1.455       .  S
C2182      C2183   1.435       .  A
C2182      C2198   1.447       .  S
C2183      C2184   1.429       .  A
C2184      C2187   1.445       .  S
C2185      C2188   1.413       .  A
C2185      C2192   1.407       .  A
C2186      N2203   1.157       .  T
C2187      N2205   1.157       .  T
C2188      C2189   1.410       .  A
C2188      C2193   1.451       .  S
C2189      C2190   1.414       .  A
C2189      C2195   1.451       .  S
C2190      C2191   1.417       .  A
C2191      C2192   1.410       .  A
C2191      C2194   1.450       .  S
C2192      C2196   1.451       .  S
C2193      N2200   1.157       .  T
C2194      N2201   1.157       .  T
C2195      N2199   1.157       .  T
C2196      N2202   1.157       .  T
C2197      N2206   1.157       .  T
C2198      N2204   1.159       .  T
C2207      C2208   1.406       .  A
C2207      C2212   1.411       .  A
C2207      C2225   1.453       .  S
C2208      C2213   1.500       .  S
C2208      C2209   1.405       .  A
C2209      C2210   1.417       .  A
C2209      C2214   1.451       .  S
C2210      C2211   1.423       .  A
C2210      C2226   1.442       .  S
C2211      C2212   1.420       .  A
C2212      C2215   1.445       .  S
C2213      C2216   1.408       .  A
C2213      C2220   1.411       .  A
C2214      N2231   1.157       .  T
C2215      N2233   1.157       .  T
C2216      C2217   1.411       .  A
C2216      C2221   1.451       .  S
C2217      C2218   1.419       .  A
C2217      C2223   1.451       .  S
C2218      C2219   1.418       .  A
C2219      C2220   1.415       .  A
C2220      C2224   1.448       .  S
C2221      N2228   1.157       .  T
C2222      N2229   1.157       .  T
C2223      N2227   1.157   1_556  T
C2225      N2234   1.157       .  T
C2226      N2232   1.155       .  T
C2235      C2236   1.406       .  A
C2235      C2240   1.411       .  A
C2235      C2253   1.455       .  S
C2236      C2241   1.505       .  S
C2236      C2237   1.411       .  A
C2237      C2238   1.416       .  A
C2237      C2242   1.451       .  S
C2238      C2239   1.419       .  A
C2238      C2254   1.445       .  S
C2239      C2240   1.424       .  A
C2240      C2243   1.444       .  S
C2241      C2244   1.415       .  A
C2241      C2248   1.410       .  A
C2242      N2259   1.157       .  T
C2243      N2261   1.156       .  T
C2244      C2245   1.414       .  A
C2244      C2249   1.452       .  S
C2245      C2246   1.417       .  A
C2245      C3145   1.451       .  S
C2246      C2247   1.425       .  A
C2247      C2248   1.411       .  A
C2249      N2256   1.157       .  T
C2250      N2257   1.157       .  T
C2251      C3139   1.451   1_545  S
C2251      N2255   1.158       .  T
C2252      N2258   1.157   1_455  T
C2253      N2262   1.157       .  T
C2254      N2260   1.156       .  T
C2263      C2264   1.405       .  A
C2263      C2268   1.416       .  A
C2263      C2281   1.451       .  S
C2264      C2269   1.506       .  S
C2264      C2265   1.407       .  A
C2265      C2266   1.416       .  A
C2265      C2270   1.452       .  S
C2266      C2267   1.425       .  A
C2266      C2282   1.446       .  S
C2267      C2268   1.421       .  A
C2268      C2271   1.442       .  S
C2269      C2272   1.405       .  A
C2269      C2276   1.405       .  A
C2270      N3181   1.157       .  T
C2271      N2289   1.156       .  T
C2272      C2273   1.417       .  A
C2272      C2277   1.452       .  S
C2273      C2274   1.430       .  A
C2274      C2275   1.424       .  A
C2275      C2276   1.416       .  A
C2275      C2278   1.444       .  S
C2276      C2280   1.451       .  S
C2277      N2284   1.157       .  T
C2278      N2285   1.156       .  T
C2279      N2283   1.158   1_455  T
C2280      N2286   1.157       .  T
C2282      N2288   1.156       .  T
N2287      C3164   1.157   1_545  T
C2291      C2292   1.403       .  A
C2291      C2296   1.411       .  A
C2291      C2309   1.453       .  S
C2292      C2297   1.505       .  S
C2292      C2293   1.409       .  A
C2293      C2294   1.419       .  A
C2293      C2298   1.445       .  S
C2294      C2295   1.423       .  A
C2294      C2310   1.447       .  S
C2295      C2296   1.424       .  A
C2296      C2299   1.442       .  S
C2297      C2300   1.410       .  A
C2297      C2304   1.405       .  A
C2299      N2317   1.156       .  T
C2300      C2301   1.419       .  A
C2300      C2305   1.449       .  S
C2301      C2302   1.423       .  A
C2302      C2303   1.420       .  A
C2303      C2304   1.411       .  A
C2303      C2306   1.440       .  S
C2304      C2308   1.454       .  S
C2305      N2312   1.157       .  T
C2306      N2313   1.154       .  T
C2307      N2311   1.157       .  T
C2308      N2314   1.157       .  T
C2309      N2318   1.157       .  T
C2310      N2316   1.158       .  T
C2319      C2320   1.418       .  A
C2319      C2324   1.415       .  A
C2319      C2337   1.451       .  S
C2320      C2325   1.524       .  S
C2320      C2321   1.416       .  A
C2321      C2322   1.413       .  A
C2321      C2326   1.451       .  S
C2322      C2323   1.420       .  A
C2322      C2338   1.443       .  S
C2323      C2324   1.415       .  A
C2324      C2327   1.442       .  S
C2325      C2328   1.418       .  A
C2325      C2332   1.416       .  A
C2326      N2343   1.157       .  T
C2327      N2345   1.156       .  T
C2328      C2329   1.415       .  A
C2328      C2333   1.451       .  S
C2329      C2330   1.417       .  A
C2329      C2335   1.446       .  S
C2330      C2331   1.413       .  A
C2331      C2332   1.415       .  A
C2331      C2334   1.439       .  S
C2332      C2336   1.452       .  S
C2333      N3234   1.157       .  T
C2334      N2341   1.154       .  T
C2335      N2339   1.156       .  T
C2336      N2342   1.157       .  T
C2337      N2346   1.157       .  T
C2338      N2344   1.156       .  T
N2340      C3227   1.157   1_545  T
C2347      C2348   1.411       .  A
C2347      C2352   1.411       .  A
C2347      C2365   1.450       .  S
C2348      C2353   1.502       .  S
C2348      C2349   1.415       .  A
C2349      C2350   1.411       .  A
C2349      C2354   1.451       .  S
C2350      C2351   1.412       .  A
C2350      C2366   1.451       .  S
C2351      C2352   1.418       .  A
C2352      C2355   1.452       .  S
C2353      C2356   1.410       .  A
C2353      C2360   1.404       .  A
C2354      N3265   1.157       .  T
C2355      N2373   1.158       .  T
C2356      C2357   1.418       .  A
C2356      C2361   1.450       .  S
C2357      C2358   1.419       .  A
C2357      C2363   1.445       .  S
C2358      C2359   1.425       .  A
C2359      C2360   1.408       .  A
C2359      C3256   1.443       .  S
C2360      C2364   1.458       .  S
C2361      N2368   1.157       .  T
C2362      C3253   1.443   1_545  S
C2362      N2369   1.156       .  T
C2363      N2367   1.156       .  T
C2364      N2370   1.157       .  T
C2365      N2374   1.157       .  T
C2366      N2372   1.157       .  T
N2371      C3248   1.157       .  T
C2375      C2376   1.402       .  A
C2375      C2380   1.412       .  A
C2375      C2393   1.451       .  S
C2376      C2381   1.483       .  S
C2376      C2377   1.401       .  A
C2377      C2378   1.401       .  A
C2377      C2382   1.455       .  S
C2378      C2379   1.427       .  A
C2379      C2380   1.430       .  A
C2380      C2383   1.448       .  S
C2381      C2384   1.408       .  A
C2381      C2388   1.411       .  A
C2382      N2399   1.157       .  T
C2383      N2401   1.157       .  T
C2384      C2385   1.404       .  A
C2384      C2389   1.451       .  S
C2385      C2386   1.413       .  A
C2385      C2391   1.452       .  S
C2386      C2387   1.408       .  A
C2387      C2388   1.405       .  A
C2387      C2390   1.449       .  S
C2389      N2396   1.157       .  T
C2390      N2397   1.157       .  T
C2391      N2395   1.157       .  T
C2392      N2398   1.157       .  T
C2393      N2402   1.157       .  T
C2394      N2400   1.158   1_455  T
C2403      C2404   1.410       .  A
C2403      C2408   1.421       .  A
C2403      C2421   1.449       .  S
C2404      C2409   1.506       .  S
C2404      C2405   1.403       .  A
C2405      C2406   1.410       .  A
C2405      C2410   1.456       .  S
C2406      C2407   1.424       .  A
C2406      C3316   1.441       .  S
C2407      C2408   1.422       .  A
C2408      C2411   1.445       .  S
C2409      C2412   1.411       .  A
C2409      C2416   1.414       .  A
C2410      N2427   1.157       .  T
C2411      N2429   1.156       .  T
C2412      C2413   1.414       .  A
C2412      C2417   1.451       .  S
C2413      C2414   1.418       .  A
C2413      C2419   1.451       .  S
C2414      C2415   1.416       .  A
C2415      C2416   1.413       .  A
C2415      C2418   1.452       .  S
C2416      C2420   1.451       .  S
C2418      N2425   1.158       .  T
C2419      N2423   1.157       .  T
C2420      N3320   1.157       .  T
C2421      N2430   1.157       .  T
C2422      C3300   1.441   1_545  S
C2422      N2428   1.156       .  T
N2426      C3314   1.157       .  T
C2431      C2432   1.412       .  A
C2431      C2436   1.413       .  A
C2431      C2449   1.451       .  S
C2432      C2437   1.498       .  S
C2432      C2433   1.410       .  A
C2433      C2434   1.408       .  A
C2433      C2438   1.449       .  S
C2434      C2435   1.418       .  A
C2434      C2450   1.454       .  S
C2435      C2436   1.418       .  A
C2436      C2439   1.450       .  S
C2437      C2440   1.406       .  A
C2437      C2444   1.405       .  A
C2438      N2455   1.156       .  T
C2439      N2457   1.157       .  T
C2440      C2441   1.415       .  A
C2440      C2445   1.450       .  S
C2441      C2442   1.424       .  A
C2441      C2447   1.446       .  S
C2442      C2443   1.432       .  A
C2443      C2444   1.411       .  A
C2443      C2446   1.447       .  S
C2444      C2448   1.455       .  S
C2445      N2452   1.157       .  T
C2446      N2453   1.159       .  T
C2447      N2451   1.156       .  T
C2448      N2454   1.157       .  T
C2449      N2458   1.157       .  T
C2450      N2456   1.158       .  T
C2459      C2464   1.410       .  A
C2460      C2465   1.501       .  S
C2461      C2462   1.411       .  A
C2461      C2466   1.450       .  S
C2462      C2463   1.414       .  A
C2462      C2478   1.451       .  S
C2463      C2464   1.411       .  A
C2464      C2467   1.451       .  S
C2465      C2468   1.406       .  A
C2465      C2472   1.409       .  A
C2466      N2483   1.157       .  T
C2467      N2485   1.157       .  T
C2468      C2469   1.408       .  A
C2468      C2473   1.455       .  S
C2469      C2470   1.424       .  A
C2469      C2475   1.446       .  S
C2470      C2471   1.421       .  A
C2471      C2472   1.417       .  A
C2471      C2474   1.444       .  S
C2473      N2480   1.157       .  T
C2474      N2481   1.155       .  T
C2475      N2479   1.155       .  T
C2476      N2482   1.157       .  T
C2477      N2486   1.157       .  T
C2478      N2484   1.157       .  T
C2487      C2488   1.404       .  A
C2487      C2492   1.408       .  A
C2487      C2505   1.455       .  S
C2488      C2493   1.491       .  S
C2488      C2489   1.403       .  A
C2489      C2490   1.414       .  A
C2489      C3388   1.451       .  S
C2490      C2491   1.422       .  A
C2490      C2506   1.445       .  S
C2491      C2492   1.417       .  A
C2492      C2495   1.440       .  S
C2493      C3390   1.409       .  A
C2493      C3394   1.409       .  A
C2494      C3383   1.451       .  S
C2494      N2511   1.157   1_565  T
C2495      N2513   1.155       .  T
C2496      C3387   1.409       .  A
C2496      C2497   1.408       .  A
C2496      C2501   1.450   1_545  S
C2497      C2498   1.414       .  A
C2497      C2503   1.452       .  S
C2498      C2499   1.416       .  A
C2499      C2500   1.410       .  A
C2499      C2502   1.450       .  S
C2500      C3387   1.409       .  A
C2500      C3398   1.451       .  S
C2501      N3402   1.157       .  T
C2502      N2509   1.157       .  T
C2503      N2507   1.157       .  T
C2504      C3394   1.451       .  S
C2504      N2510   1.157       .  T
C2505      N2514   1.157       .  T
C2506      N2512   1.156       .  T
N2508      C3395   1.157       .  T
C2515      C2516   1.405       .  A
C2515      C2520   1.414       .  A
C2515      C2533   1.452       .  S
C2516      C2521   1.500       .  S
C2516      C2517   1.407       .  A
C2517      C2518   1.412       .  A
C2517      C2522   1.453       .  S
C2518      C2519   1.420       .  A
C2518      C2534   1.445       .  S
C2519      C2520   1.425       .  A
C2520      C2523   1.445       .  S
C2521      C2524   1.411       .  A
C2521      C2528   1.414       .  A
C2522      N2539   1.157       .  T
C2523      N2541   1.156       .  T
C2524      C2525   1.409       .  A
C2524      C2529   1.450       .  S
C2525      C2526   1.412       .  A
C2525      C2531   1.451       .  S
C2526      C2527   1.411       .  A
C2527      C2528   1.413       .  A
C2527      C2530   1.450       .  S
C2528      C2532   1.450       .  S
C2529      N2536   1.157       .  T
C2530      N2537   1.157       .  T
C2531      N2535   1.157       .  T
C2532      N2538   1.157       .  T
C2533      N2542   1.157       .  T
C2534      N2540   1.155       .  T
C2543      C2548   1.414       .  A
C2543      C2561   1.451       .  S
C2544      C2549   1.498   1_455  S
C2545      C2546   1.409       .  A
C2546      C2547   1.423       .  A
C2546      C2562   1.450       .  S
C2547      C2548   1.424       .  A
C2548      C2551   1.451       .  S
C2549      C2552   1.407       .  A
C2549      C2556   1.405       .  A
C2550      N2567   1.157       .  T
C2551      N2569   1.158       .  T
C2552      C2553   1.413       .  A
C2553      C2554   1.425       .  A
C2553      C2559   1.449       .  S
C2554      C2555   1.423       .  A
C2555      C2556   1.412       .  A
C2555      C2558   1.446       .  S
C2556      C2560   1.453       .  S
C2557      N2564   1.157       .  T
C2558      N2565   1.156       .  T
C2559      N2563   1.157       .  T
C2560      N2566   1.157       .  T
C2562      N2568   1.157       .  T
C2571      C3466   1.411       .  A
C2571      C2576   1.413       .  A
C2571      C2589   1.450       .  S
C2572      C2577   1.496   1_565  S
C2572      C3465   1.411       .  A
C2572      C2573   1.410   1_565  A
C2573      C3468   1.407   1_545  A
C2573      C2578   1.452       .  S
C2574      C3467   1.407       .  A
C2574      C2575   1.415       .  A
C2574      C2590   1.452       .  S
C2575      C2576   1.416       .  A
C2576      C2579   1.451       .  S
C2577      C2580   1.406       .  A
C2577      C2584   1.402       .  A
C2578      N2595   1.157       .  T
C2579      N2597   1.158       .  T
C2580      C2581   1.416       .  A
C2580      C2585   1.451       .  S
C2581      C2582   1.425       .  A
C2581      C2587   1.447       .  S
C2582      C2583   1.424       .  A
C2583      C2584   1.409       .  A
C2583      C2586   1.444       .  S
C2584      C2588   1.455       .  S
C2585      N2592   1.157   1_545  T
C2586      N2593   1.155       .  T
C2587      N2591   1.157       .  T
C2588      N2594   1.157       .  T
C2589      N2598   1.157       .  T
C2590      N2596   1.157       .  T
C2599      C2600   1.416       .  A
C2599      C2604   1.411       .  A
C2599      C2617   1.452       .  S
C2600      C2605   1.519       .  S
C2600      C2601   1.417       .  A
C2601      C2602   1.415       .  A
C2601      C2606   1.451       .  S
C2602      C2603   1.417       .  A
C2602      C2618   1.447       .  S
C2603      C2604   1.415       .  A
C2604      C2607   1.446       .  S
C2605      C2608   1.412       .  A
C2605      C2612   1.414       .  A
C2606      N2623   1.157       .  T
C2607      N2625   1.156       .  T
C2608      C2609   1.412       .  A
C2608      C2613   1.452       .  S
C2609      C2610   1.420       .  A
C2609      C2615   1.436       .  S
C2610      C2611   1.419       .  A
C2611      C2612   1.413       .  A
C2611      C2614   1.440       .  S
C2612      C2616   1.450       .  S
C2613      N2620   1.157       .  T
C2614      N2621   1.157       .  T
C2615      N2619   1.152       .  T
C2616      N2622   1.157       .  T
C2617      N2626   1.157       .  T
C2618      N2624   1.156       .  T
C2627      C2628   1.410       .  A
C2627      C2632   1.417       .  A
C2627      C2645   1.451       .  S
C2628      C3527   1.508   1_545  S
C2628      C2629   1.407       .  A
C2629      C2630   1.415       .  A
C2629      C3528   1.452       .  S
C2630      C2631   1.425       .  A
C2630      C2646   1.447       .  S
C2631      C2632   1.423       .  A
C2632      C2635   1.447       .  S
C2633      C3522   1.508       .  S
C2633      C2636   1.410       .  A
C2633      C2640   1.408       .  A
C2634      C3523   1.452       .  S
C2634      N2651   1.157       .  T
C2635      N2653   1.157       .  T
C2636      C2637   1.416       .  A
C2636      C3535   1.451       .  S
C2637      C2638   1.418       .  A
C2637      C2643   1.445       .  S
C2638      C2639   1.419       .  A
C2639      C2640   1.414       .  A
C2639      C2642   1.445       .  S
C2640      C2644   1.451       .  S
C2641      C3530   1.450       .  S
C2641      N2648   1.157   1_565  T
C2642      N2649   1.156       .  T
C2643      N2647   1.156       .  T
C2644      N2650   1.156       .  T
C2645      N2654   1.157       .  T
C2646      N2652   1.157       .  T
C2655      C2656   1.402       .  A
C2655      C2660   1.411       .  A
C2656      C2657   1.403       .  A
C2657      C2658   1.410       .  A
C2657      C2662   1.451       .  S
C2658      C2659   1.426       .  A
C2658      C2674   1.447       .  S
C2659      C2660   1.429       .  A
C2660      C2663   1.447       .  S
C2661      C2664   1.404       .  A
C2661      C2668   1.404       .  A
C2662      N2679   1.157       .  T
C2663      N2681   1.157       .  T
C2664      C2665   1.412       .  A
C2664      C2669   1.451       .  S
C2665      C2666   1.424       .  A
C2665      C2671   1.448       .  S
C2666      C2667   1.425       .  A
C2667      C2668   1.409       .  A
C2667      C2670   1.448       .  S
C2668      C2672   1.453       .  S
C2669      N2676   1.157       .  T
C2670      N2677   1.157       .  T
C2671      N2675   1.157       .  T
C2673      N2682   1.157       .  T
C2674      N2680   1.158       .  T
C2683      H2684   1.107       .  S
C2683      C2689   1.560       .  S
C2683      C2688   1.549       .  S
C2683      C2687   1.550       .  S
C2685      H2686   1.108       .  S
C2685      C2691   1.549       .  S
C2685      C2690   1.547       .  S
C2685      C2692   1.548       .  S
C2687      C2690   1.383       .  D
C2687      C3560   1.513       .  S
C2688      C2691   1.379       .  D
C2688      C3497   1.511       .  S
C2689      C2692   1.386       .  D
C2689      C3525   1.525       .  S
C2690      C3448   1.516       .  S
C2691      C3413   1.516       .  S
C2692      C3476   1.518       .  S
C2693      H2694   1.086       .  S
C2693      C2699   1.530       .  S
C2693      C2698   1.553       .  S
C2693      C2697   1.547       .  S
C2695      H2696   1.095       .  S
C2695      C2701   1.540       .  S
C2695      C2700   1.569       .  S
C2695      C2702   1.575       .  S
C2697      C2700   1.399       .  D
C2697      C3336   1.540       .  S
C2698      C2701   1.371       .  D
C2698      C3385   1.509       .  S
C2699      C2702   1.391       .  D
C2699      C3364   1.519       .  S
C2700      C3504   1.531       .  S
C2701      C3532   1.516       .  S
C2702      C3553   1.537       .  S
O2703     Ni2709   1.942       .  S
O2703      C2724   1.273       .  A
O2704     Ni2727   1.899       .  S
O2704      C2713   1.267       .  A
O2705     Ni2709   1.917       .  S
O2705     Ni2727   1.907       .  S
O2705     Ni2721   1.912       .  S
O2705      H2728   0.966       .  S
C2706      O2723   1.271       .  A
C2706      O2715   1.279       .  A
C2706      C3308   1.495       .  S
O2707     Ni2726   1.936       .  S
O2707      C2713   1.274       .  A
O2708     Ni2726   1.915       .  S
O2708      C2710   1.269       .  A
Ni2709     O2712   1.924       .  S
Ni2709     O2714   1.903       .  S
C2710      O2720   1.266       .  A
C2710      C3245   1.488       .  S
O2711     Ni2727   1.918       .  S
O2711      C2717   1.274       .  A
O2712      C2717   1.275       .  A
C2713      C3469   1.486       .  S
O2714      C2716   1.269       .  A
O2715     Ni2726   1.945       .  S
C2716      O2722   1.274       .  A
C2716      C3441   1.504       .  S
C2717      C3420   1.481       .  S
H2718      O2719   0.966       .  S
O2719     Ni2727   1.911       .  S
O2719     Ni2721   1.897       .  S
O2719     Ni2726   1.918       .  S
O2720     Ni2721   1.917       .  S
Ni2721     O2725   1.876       .  S
Ni2721     O2723   1.905       .  S
O2722     Ni2727   1.934       .  S
C2724      O2725   1.256       .  A
C2724      C3280   1.469       .  S
C2729      H2730   1.090       .  S
C2729      C2734   1.558       .  S
C2731      H2732   1.088       .  S
C2731      C2737   1.547       .  S
C2733      C2736   1.397       .  D
C2734      C2737   1.389       .  D
C2735      C2738   1.377       .  D
C2735      C3252   1.516       .  S
C2738      C3217   1.523       .  S
C2739      H2740   1.091       .  S
C2739      C2745   1.534       .  S
C2739      C2744   1.553       .  S
C2739      C2743   1.567       .  S
C2741      H2742   1.095       .  S
C2741      C2747   1.568       .  S
C2741      C2746   1.544       .  S
C2741      C2748   1.567       .  S
C2743      C2746   1.397       .  D
C2743      C3077   1.542       .  S
C2744      C2747   1.388       .  D
C2744      C3105   1.520       .  S
C2745      C2748   1.376       .  D
C2745      C3133   1.519       .  S
C2746      C3224   1.519       .  S
C2747      C3189   1.541       .  S
C2748      C3161   1.522       .  S
C2749      H2750   1.099       .  S
C2749      C2755   1.549       .  S
C2749      C2754   1.549       .  S
C2749      C2753   1.570       .  S
C2751      H2752   1.104       .  S
C2751      C2757   1.560       .  S
C2751      C2756   1.545       .  S
C2751      C2758   1.546       .  S
C2753      C2756   1.396       .  D
C2753      C2993   1.524       .  S
C2754      C2757   1.390       .  D
C2754      C3028   1.535       .  S
C2755      C2758   1.369       .  D
C2755      C3056   1.506       .  S
C2756      C2972   1.536       .  S
C2757      C2944   1.515       .  S
C2758      C2916   1.512       .  S
C2759      H2760   1.106       .  S
C2759      C2765   1.544   1_545  S
C2761      H2762   1.107       .  S
C2761      C2768   1.546   1_545  S
C2763      C2766   1.388       .  D
C2763      C3021   1.522       .  S
C2764      C2767   1.385       .  D
C2765      C2768   1.373       .  D
C2766      C2825   1.521       .  S
O2769     Ni2775   1.930       .  S
O2769      C2790   1.271       .  A
O2770     Ni2793   1.913       .  S
O2770      C2779   1.267       .  A
O2771     Ni2775   1.919       .  S
O2771     Ni2793   1.920       .  S
O2771     Ni2787   1.926       .  S
O2771      H2794   0.966       .  S
C2772      O2789   1.270       .  A
C2772      O2781   1.275       .  A
C2772      C3329   1.492       .  S
O2773     Ni2792   1.924       .  S
O2773      C2779   1.268       .  A
O2774     Ni2792   1.906       .  S
O2774      C2776   1.267       .  A
Ni2775     O2778   1.937       .  S
Ni2775     O2780   1.899       .  S
C2776      O2786   1.268       .  A
C2776      C3357   1.482       .  S
O2777     Ni2793   1.907       .  S
O2777      C2783   1.269       .  A
O2778      C2783   1.274       .  A
C2779      C2860   1.494       .  S
O2780      C2782   1.268       .  A
O2781     Ni2792   1.928       .  S
C2782      O2788   1.276       .  A
C2782      C2832   1.502       .  S
C2783      C2888   1.485       .  S
H2784      O2785   0.966       .  S
O2785     Ni2793   1.907       .  S
O2785     Ni2787   1.905       .  S
O2785     Ni2792   1.921       .  S
O2786     Ni2787   1.925       .  S
Ni2787     O2791   1.891       .  S
Ni2787     O2789   1.907       .  S
O2788     Ni2793   1.945       .  S
C2790      O2791   1.261       .  A
C2790      C3392   1.484       .  S
O2795     Ni2801   1.930   1_556  S
O2795      C2816   1.273       .  A
O2796      C2805   1.267   1_455  A
O2797     Ni2801   1.917       .  S
O2797      H2820   0.969       .  S
C2798      O2815   1.265       .  A
C2798      O2807   1.272       .  A
C2798      C3084   1.486       .  S
O2799     Ni2818   1.921       .  S
O2799      C2805   1.271       .  A
O2800     Ni2818   1.898       .  S
Ni2801     O2804   1.938       .  S
Ni2801     O2806   1.906       .  S
C2802      O2812   1.281       .  A
C2802      C3140   1.502       .  S
O2803      C2809   1.265       .  A
O2804      C2809   1.274       .  A
C2805      C2909   1.493       .  S
O2807     Ni2818   1.938   1_556  S
C2808      O2814   1.279       .  A
C2808      C2965   1.506   1_455  S
C2809      C2937   1.479       .  S
H2810      O2811   0.966       .  S
O2811     Ni2818   1.919       .  S
C2816      O2817   1.268       .  A
C2816      C3112   1.498       .  S
C2821      C2822   1.404       .  A
C2821      C2826   1.414       .  A
C2821      C2839   1.452       .  S
C2822      C2827   1.494       .  S
C2822      C2823   1.401       .  A
C2823      C2824   1.407       .  A
C2823      C2828   1.455       .  S
C2824      C2825   1.426       .  A
C2824      C2840   1.445       .  S
C2825      C2826   1.428       .  A
C2826      C2829   1.446       .  S
C2827      C2830   1.408       .  A
C2827      C2834   1.406       .  A
C2828      N2845   1.157       .  T
C2829      N2847   1.156       .  T
C2830      C2831   1.411       .  A
C2830      C2835   1.452       .  S
C2831      C2832   1.423       .  A
C2831      C2837   1.451       .  S
C2832      C2833   1.426       .  A
C2833      C2834   1.408       .  A
C2833      C2836   1.452       .  S
C2834      C2838   1.453       .  S
C2835      N2842   1.157       .  T
C2836      N2843   1.158       .  T
C2837      N2841   1.157       .  T
C2839      N2848   1.157       .  T
C2840      N2846   1.156       .  T
C2849      C2850   1.403       .  A
C2849      C2854   1.411       .  A
C2849      C2867   1.453       .  S
C2850      C2855   1.498       .  S
C2850      C2851   1.407   1_655  A
C2852      C2868   1.444       .  S
C2853      C2854   1.422       .  A
C2854      C2857   1.442       .  S
C2855      C2858   1.410       .  A
C2855      C2862   1.410       .  A
C2856      N2873   1.157       .  T
C2857      N2875   1.155       .  T
C2858      C2859   1.413       .  A
C2858      C2863   1.449       .  S
C2859      C2860   1.417       .  A
C2859      C2865   1.450       .  S
C2860      C2861   1.420       .  A
C2861      C2862   1.408       .  A
C2861      C2864   1.454       .  S
C2862      C2866   1.451       .  S
C2864      N2871   1.158       .  T
C2865      N2869   1.157       .  T
C2866      N2872   1.157       .  T
C2867      N2876   1.157       .  T
C2868      N2874   1.155       .  T
C2877      C2878   1.405       .  A
C2877      C2882   1.411       .  A
C2877      C2895   1.453       .  S
C2878      C2883   1.498       .  S
C2878      C2879   1.405       .  A
C2879      C2880   1.415       .  A
C2879      C2884   1.451       .  S
C2880      C2881   1.427       .  A
C2880      C2896   1.448   1_655  S
C2881      C2882   1.423       .  A
C2883      C2886   1.411       .  A
C2883      C2890   1.411       .  A
C2884      N2901   1.157   1_655  T
C2885      N2903   1.155       .  T
C2886      C2887   1.412       .  A
C2886      C2891   1.450   1_655  S
C2887      C2888   1.414       .  A
C2887      C2893   1.450       .  S
C2888      C2889   1.414       .  A
C2889      C2890   1.411       .  A
C2889      C2892   1.451       .  S
C2890      C2894   1.450       .  S
C2892      N2899   1.157       .  T
C2893      N2897   1.157       .  T
C2895      N2904   1.157       .  T
C2896      N2902   1.157       .  T
C2905      C2906   1.410       .  A
C2905      C2910   1.408       .  A
C2905      C2923   1.452       .  S
C2906      C2911   1.500       .  S
C2906      C2907   1.414       .  A
C2907      C2908   1.415       .  A
C2907      C2912   1.451       .  S
C2908      C2909   1.416       .  A
C2908      C2924   1.450       .  S
C2909      C2910   1.417       .  A
C2910      C2913   1.452       .  S
C2911      C2914   1.408       .  A
C2911      C2918   1.405       .  A
C2912      N2929   1.157       .  T
C2913      N2931   1.157       .  T
C2914      C2915   1.416       .  A
C2914      C2919   1.451   1_655  S
C2915      C2916   1.417       .  A
C2915      C2921   1.442       .  S
C2916      C2917   1.418       .  A
C2917      C2918   1.410       .  A
C2917      C2920   1.438       .  S
C2918      C2922   1.455       .  S
C2920      N2927   1.154       .  T
C2921      N2925   1.155       .  T
C2922      N2928   1.157       .  T
C2923      N2932   1.157       .  T
C2924      N2930   1.157       .  T
C2933      C2934   1.408       .  A
C2933      C2938   1.407       .  A
C2933      C2951   1.450       .  S
C2934      C2939   1.490       .  S
C2934      C2935   1.411       .  A
C2935      C2936   1.410       .  A
C2935      C2940   1.451       .  S
C2936      C2937   1.413       .  A
C2936      C2952   1.451       .  S
C2937      C2938   1.413       .  A
C2938      C2941   1.451       .  S
C2939      C2942   1.403       .  A
C2939      C2946   1.403       .  A
C2940      N2957   1.157       .  T
C2941      N2959   1.157       .  T
C2942      C2943   1.411       .  A
C2942      C2947   1.451       .  S
C2943      C2944   1.427       .  A
C2943      C2949   1.448       .  S
C2944      C2945   1.426       .  A
C2945      C2946   1.409       .  A
C2945      C2948   1.445       .  S
C2946      C2950   1.453       .  S
C2947      N2954   1.157       .  T
C2948      N2955   1.157       .  T
C2949      N2953   1.157       .  T
C2950      N2956   1.157       .  T
C2951      N2960   1.157       .  T
C2952      N2958   1.157       .  T
C2961      C2962   1.411       .  A
C2961      C2966   1.414       .  A
C2961      C2979   1.451       .  S
C2962      C2967   1.505       .  S
C2962      C2963   1.409       .  A
C2963      C2964   1.413       .  A
C2964      C2965   1.425       .  A
C2965      C2966   1.421       .  A
C2966      C2969   1.450       .  S
C2967      C2970   1.405       .  A
C2967      C2974   1.402       .  A
C2968      N2985   1.157       .  T
C2970      C2971   1.419       .  A
C2970      C2975   1.452       .  S
C2971      C2972   1.428       .  A
C2971      C2977   1.441       .  S
C2972      C2973   1.430       .  A
C2973      C2974   1.413       .  A
C2973      C2976   1.444       .  S
C2974      C2978   1.455       .  S
C2975      N2982   1.157   1_655  T
C2976      N2983   1.156       .  T
C2977      N2981   1.156       .  T
C2978      N2984   1.157       .  T
C2979      N2988   1.157       .  T
C2980      N2986   1.158       .  T
C2989      C2990   1.403       .  A
C2989      C2994   1.410       .  A
C2989      C3007   1.451       .  S
C2990      C2995   1.493       .  S
C2990      C2991   1.403       .  A
C2991      C2992   1.412       .  A
C2991      C2996   1.452       .  S
C2992      C2993   1.426       .  A
C2992      C3008   1.448       .  S
C2993      C2994   1.427       .  A
C2994      C2997   1.446       .  S
C2995      C2998   1.403       .  A
C2995      C3002   1.402       .  A
C2996      N3013   1.157       .  T
C2997      N3015   1.158       .  T
C2998      C2999   1.411       .  A
C2998      C3003   1.453       .  S
C2999      C3000   1.428       .  A
C3001      C3004   1.448       .  S
C3003      N3010   1.157       .  T
C3004      N3011   1.156       .  T
C3005      N3009   1.157   1_545  T
C3006      N3012   1.156       .  T
C3007      N3016   1.156       .  T
C3008      N3014   1.157       .  T
C3017      C3018   1.405       .  A
C3017      C3022   1.413       .  A
C3017      C3035   1.451       .  S
C3018      C3023   1.503       .  S
C3018      C3019   1.407       .  A
C3019      C3020   1.414       .  A
C3019      C3024   1.450       .  S
C3020      C3021   1.424       .  A
C3020      C3036   1.447       .  S
C3021      C3022   1.426       .  A
C3022      C3025   1.448       .  S
C3023      C3026   1.401       .  A
C3023      C3030   1.402       .  A
C3024      N3041   1.156       .  T
C3025      N3043   1.157       .  T
C3026      C3027   1.415       .  A
C3026      C3031   1.452       .  S
C3027      C3028   1.430       .  A
C3027      C3033   1.446       .  S
C3028      C3029   1.431       .  A
C3029      C3030   1.417       .  A
C3029      C3032   1.442       .  S
C3030      C3034   1.454       .  S
C3031      N3038   1.156       .  T
C3032      N3039   1.156       .  T
C3033      N3037   1.156       .  T
C3034      N3040   1.157       .  T
C3035      N3044   1.157       .  T
C3036      N3042   1.157       .  T
C3045      C3046   1.420       .  A
C3046      C3051   1.519       .  S
C3046      C3047   1.418       .  A
C3047      C3048   1.407       .  A
C3047      C3052   1.449       .  S
C3048      C3049   1.408       .  A
C3048      C3064   1.444       .  S
C3050      C3053   1.443       .  S
C3051      C3054   1.420       .  A
C3051      C3058   1.418       .  A
C3052      N3069   1.157       .  T
C3053      N3071   1.155       .  T
C3054      C3055   1.413       .  A
C3054      C3059   1.451       .  S
C3055      C3056   1.413       .  A
C3055      C3061   1.440       .  S
C3056      C3057   1.406       .  A
C3057      C3058   1.405       .  A
C3057      C3060   1.442       .  S
C3058      C3062   1.449       .  S
C3059      N3066   1.157       .  T
C3060      N3067   1.156       .  T
C3061      N3065   1.155       .  T
C3062      N3068   1.157       .  T
C3063      N3072   1.157       .  T
C3064      N3070   1.156       .  T
C3073      C3074   1.402       .  A
C3073      C3078   1.414       .  A
C3073      C3091   1.452       .  S
C3074      C3079   1.495       .  S
C3074      C3075   1.401       .  A
C3075      C3076   1.410       .  A
C3075      C3080   1.455       .  S
C3076      C3077   1.435       .  A
C3076      C3092   1.447       .  S
C3077      C3078   1.429       .  A
C3078      C3081   1.445       .  S
C3079      C3082   1.413       .  A
C3079      C3086   1.407       .  A
C3080      N3097   1.157       .  T
C3081      N3099   1.157       .  T
C3082      C3083   1.410       .  A
C3082      C3087   1.451       .  S
C3083      C3084   1.414       .  A
C3083      C3089   1.451       .  S
C3084      C3085   1.417       .  A
C3085      C3086   1.410       .  A
C3085      C3088   1.450       .  S
C3086      C3090   1.451       .  S
C3087      N3094   1.157       .  T
C3088      N3095   1.157       .  T
C3089      N3093   1.157   1_565  T
C3090      N3096   1.157       .  T
C3091      N3100   1.157       .  T
C3092      N3098   1.159       .  T
C3101      C3102   1.406       .  A
C3101      C3106   1.411       .  A
C3101      C3119   1.453       .  S
C3102      C3107   1.500       .  S
C3102      C3103   1.405       .  A
C3103      C3104   1.417       .  A
C3103      C3108   1.451       .  S
C3104      C3105   1.423       .  A
C3104      C3120   1.442       .  S
C3105      C3106   1.420       .  A
C3106      C3109   1.444       .  S
C3107      C3110   1.408       .  A
C3107      C3114   1.411       .  A
C3108      N3125   1.157       .  T
C3109      N3127   1.157       .  T
C3110      C3111   1.411       .  A
C3110      C3115   1.451       .  S
C3111      C3112   1.419       .  A
C3111      C3117   1.451       .  S
C3112      C3113   1.418       .  A
C3113      C3114   1.415       .  A
C3114      C3118   1.448       .  S
C3115      N3122   1.157       .  T
C3116      N3123   1.157       .  T
C3117      N3121   1.157   1_556  T
C3119      N3128   1.157       .  T
C3120      N3126   1.155       .  T
C3129      C3130   1.406       .  A
C3129      C3134   1.411       .  A
C3129      C3147   1.455       .  S
C3130      C3135   1.505       .  S
C3130      C3131   1.411       .  A
C3131      C3132   1.416       .  A
C3131      C3136   1.451       .  S
C3132      C3133   1.419       .  A
C3132      C3148   1.445       .  S
C3133      C3134   1.424       .  A
C3134      C3137   1.444       .  S
C3135      C3138   1.415       .  A
C3135      C3142   1.410       .  A
C3136      N3153   1.157       .  T
C3137      N3155   1.156       .  T
C3138      C3139   1.414       .  A
C3138      C3143   1.452       .  S
C3139      C3140   1.417       .  A
C3140      C3141   1.425       .  A
C3141      C3142   1.411       .  A
C3143      N3150   1.157       .  T
C3144      N3151   1.157       .  T
C3145      N3149   1.158       .  T
C3146      N3152   1.157   1_455  T
C3147      N3156   1.157       .  T
C3148      N3154   1.156       .  T
C3157      C3158   1.405       .  A
C3157      C3162   1.416       .  A
C3157      C3175   1.451       .  S
C3158      C3163   1.506       .  S
C3158      C3159   1.407       .  A
C3159      C3160   1.416       .  A
C3159      C3164   1.452       .  S
C3160      C3161   1.425       .  A
C3160      C3176   1.446       .  S
C3161      C3162   1.421       .  A
C3162      C3165   1.442       .  S
C3163      C3166   1.405       .  A
C3163      C3170   1.405       .  A
C3165      N3183   1.156       .  T
C3166      C3167   1.417       .  A
C3166      C3171   1.452       .  S
C3167      C3168   1.430       .  A
C3168      C3169   1.425       .  A
C3169      C3170   1.416       .  A
C3169      C3172   1.444   1_565  S
C3170      C3174   1.451       .  S
C3171      N3178   1.157       .  T
C3172      N3179   1.156       .  T
C3173      N3177   1.158   1_455  T
C3174      N3180   1.157       .  T
C3176      N3182   1.156       .  T
C3185      C3186   1.403       .  A
C3185      C3190   1.411       .  A
C3185      C3203   1.453       .  S
C3186      C3191   1.505       .  S
C3186      C3187   1.409       .  A
C3187      C3188   1.419       .  A
C3187      C3192   1.445       .  S
C3188      C3189   1.423       .  A
C3188      C3204   1.447       .  S
C3189      C3190   1.424       .  A
C3190      C3193   1.442       .  S
C3191      C3194   1.410       .  A
C3191      C3198   1.405       .  A
C3193      N3211   1.156       .  T
C3194      C3195   1.419       .  A
C3194      C3199   1.449       .  S
C3195      C3196   1.423       .  A
C3196      C3197   1.420       .  A
C3197      C3198   1.411       .  A
C3197      C3200   1.440       .  S
C3198      C3202   1.454       .  S
C3199      N3206   1.157       .  T
C3200      N3207   1.154       .  T
C3201      N3205   1.157       .  T
C3202      N3208   1.157       .  T
C3203      N3212   1.157       .  T
C3204      N3210   1.158       .  T
C3213      C3214   1.418       .  A
C3213      C3218   1.415       .  A
C3213      C3231   1.451       .  S
C3214      C3219   1.524       .  S
C3214      C3215   1.416       .  A
C3215      C3216   1.413       .  A
C3215      C3220   1.451       .  S
C3216      C3217   1.420       .  A
C3216      C3232   1.443   1_565  S
C3217      C3218   1.416       .  A
C3218      C3221   1.442       .  S
C3219      C3222   1.418       .  A
C3219      C3226   1.416       .  A
C3220      N3237   1.157       .  T
C3221      N3239   1.156       .  T
C3222      C3223   1.415       .  A
C3222      C3227   1.451       .  S
C3223      C3224   1.418       .  A
C3223      C3229   1.446       .  S
C3224      C3225   1.413       .  A
C3225      C3226   1.415       .  A
C3225      C3228   1.439       .  S
C3226      C3230   1.452       .  S
C3228      N3235   1.154       .  T
C3229      N3233   1.156       .  T
C3230      N3236   1.157       .  T
C3231      N3240   1.157       .  T
C3232      N3238   1.156       .  T
C3241      C3242   1.411       .  A
C3241      C3246   1.411       .  A
C3241      C3259   1.450       .  S
C3242      C3247   1.502       .  S
C3242      C3243   1.415       .  A
C3243      C3244   1.411       .  A
C3243      C3248   1.452       .  S
C3244      C3245   1.412       .  A
C3244      C3260   1.451       .  S
C3245      C3246   1.418       .  A
C3246      C3249   1.452       .  S
C3247      C3250   1.410       .  A
C3247      C3254   1.404       .  A
C3249      N3267   1.158       .  T
C3250      C3251   1.418       .  A
C3250      C3255   1.450       .  S
C3251      C3252   1.419       .  A
C3251      C3257   1.445       .  S
C3252      C3253   1.425       .  A
C3253      C3254   1.408       .  A
C3254      C3258   1.458       .  S
C3255      N3262   1.157       .  T
C3256      N3263   1.156       .  T
C3257      N3261   1.156       .  T
C3258      N3264   1.157   1_565  T
C3259      N3268   1.157       .  T
C3260      N3266   1.157       .  T
C3269      C3270   1.402       .  A
C3269      C3274   1.412       .  A
C3269      C3287   1.451       .  S
C3270      C3275   1.483       .  S
C3270      C3271   1.401       .  A
C3271      C3272   1.401       .  A
C3271      C3276   1.455       .  S
C3272      C3273   1.427       .  A
C3273      C3274   1.431       .  A
C3274      C3277   1.448       .  S
C3275      C3278   1.408       .  A
C3275      C3282   1.411       .  A
C3276      N3293   1.157       .  T
C3277      N3295   1.157       .  T
C3278      C3279   1.404       .  A
C3278      C3283   1.451       .  S
C3279      C3280   1.413       .  A
C3279      C3285   1.452       .  S
C3280      C3281   1.408       .  A
C3281      C3282   1.405       .  A
C3281      C3284   1.449       .  S
C3283      N3290   1.157       .  T
C3284      N3291   1.157       .  T
C3285      N3289   1.157       .  T
C3286      N3292   1.157       .  T
C3287      N3296   1.157       .  T
C3288      N3294   1.158   1_455  T
C3297      C3298   1.410       .  A
C3297      C3302   1.421       .  A
C3297      C3315   1.449       .  S
C3298      C3303   1.506       .  S
C3298      C3299   1.403       .  A
C3299      C3300   1.410       .  A
C3299      C3304   1.456       .  S
C3300      C3301   1.424       .  A
C3301      C3302   1.423       .  A
C3302      C3305   1.445       .  S
C3303      C3306   1.411       .  A
C3303      C3310   1.414       .  A
C3304      N3321   1.157   1_565  T
C3305      N3323   1.156       .  T
C3306      C3307   1.414       .  A
C3306      C3311   1.451       .  S
C3307      C3308   1.418       .  A
C3307      C3313   1.451       .  S
C3308      C3309   1.416       .  A
C3309      C3310   1.413       .  A
C3309      C3312   1.452       .  S
C3310      C3314   1.451       .  S
C3312      N3319   1.158       .  T
C3313      N3317   1.157       .  T
C3315      N3324   1.157       .  T
C3316      N3322   1.156       .  T
C3325      C3326   1.412       .  A
C3325      C3330   1.413       .  A
C3325      C3343   1.451       .  S
C3326      C3331   1.498       .  S
C3326      C3327   1.410       .  A
C3327      C3328   1.408       .  A
C3327      C3332   1.449       .  S
C3328      C3329   1.418       .  A
C3328      C3344   1.454       .  S
C3329      C3330   1.418       .  A
C3330      C3333   1.450       .  S
C3331      C3334   1.406       .  A
C3331      C3338   1.405       .  A
C3332      N3349   1.157       .  T
C3333      N3351   1.157       .  T
C3334      C3335   1.415       .  A
C3334      C3339   1.450       .  S
C3335      C3336   1.424       .  A
C3335      C3341   1.446       .  S
C3336      C3337   1.432       .  A
C3337      C3338   1.411       .  A
C3337      C3340   1.447       .  S
C3338      C3342   1.455       .  S
C3339      N3346   1.157       .  T
C3340      N3347   1.159       .  T
C3341      N3345   1.156       .  T
C3342      N3348   1.157       .  T
C3343      N3352   1.157       .  T
C3344      N3350   1.158       .  T
C3353      C3358   1.410       .  A
C3354      C3359   1.501       .  S
C3355      C3356   1.411       .  A
C3355      C3360   1.450       .  S
C3356      C3357   1.414       .  A
C3356      C3372   1.451       .  S
C3357      C3358   1.411       .  A
C3358      C3361   1.452       .  S
C3359      C3362   1.406       .  A
C3359      C3366   1.409       .  A
C3360      N3377   1.157       .  T
C3361      N3379   1.157       .  T
C3362      C3363   1.408       .  A
C3362      C3367   1.455       .  S
C3363      C3364   1.424       .  A
C3363      C3369   1.446       .  S
C3364      C3365   1.421       .  A
C3365      C3366   1.417       .  A
C3365      C3368   1.444       .  S
C3367      N3374   1.157       .  T
C3368      N3375   1.155       .  T
C3369      N3373   1.155       .  T
C3370      N3376   1.157       .  T
C3371      N3380   1.157       .  T
C3372      N3378   1.157       .  T
C3381      C3382   1.404       .  A
C3381      C3386   1.408       .  A
C3381      C3399   1.455       .  S
C3382      C3387   1.491   1_565  S
C3382      C3383   1.403       .  A
C3383      C3384   1.414       .  A
C3384      C3385   1.422       .  A
C3384      C3400   1.445       .  S
C3385      C3386   1.417       .  A
C3386      C3389   1.440       .  S
C3388      N3405   1.157       .  T
C3389      N3407   1.155       .  T
C3390      C3391   1.408       .  A
C3390      C3395   1.450       .  S
C3391      C3392   1.414       .  A
C3391      C3397   1.452       .  S
C3392      C3393   1.416       .  A
C3393      C3394   1.410       .  A
C3393      C3396   1.450       .  S
C3396      N3403   1.157       .  T
C3397      N3401   1.157       .  T
C3398      N3404   1.157       .  T
C3399      N3408   1.157       .  T
C3400      N3406   1.156       .  T
C3409      C3410   1.405       .  A
C3409      C3414   1.414       .  A
C3409      C3427   1.452       .  S
C3410      C3415   1.500       .  S
C3410      C3411   1.407       .  A
C3411      C3412   1.412       .  A
C3411      C3416   1.453       .  S
C3412      C3413   1.420       .  A
C3412      C3428   1.445       .  S
C3413      C3414   1.425       .  A
C3414      C3417   1.445       .  S
C3415      C3418   1.411       .  A
C3415      C3422   1.414       .  A
C3416      N3433   1.157       .  T
C3417      N3435   1.156       .  T
C3418      C3419   1.409       .  A
C3418      C3423   1.450       .  S
C3419      C3420   1.412       .  A
C3419      C3425   1.451       .  S
C3420      C3421   1.411       .  A
C3421      C3422   1.413       .  A
C3421      C3424   1.450       .  S
C3422      C3426   1.450       .  S
C3423      N3430   1.157       .  T
C3424      N3431   1.157       .  T
C3425      N3429   1.157       .  T
C3426      N3432   1.157       .  T
C3427      N3436   1.157       .  T
C3428      N3434   1.155       .  T
C3437      C3442   1.414       .  A
C3437      C3455   1.451       .  S
C3438      C3443   1.498   1_455  S
C3439      C3440   1.409       .  A
C3440      C3441   1.423       .  A
C3440      C3456   1.450       .  S
C3441      C3442   1.424       .  A
C3442      C3445   1.451       .  S
C3443      C3446   1.407       .  A
C3443      C3450   1.405       .  A
C3444      N3461   1.157       .  T
C3445      N3463   1.158       .  T
C3446      C3447   1.413       .  A
C3447      C3448   1.425       .  A
C3447      C3453   1.449       .  S
C3448      C3449   1.423       .  A
C3449      C3450   1.412       .  A
C3449      C3452   1.446       .  S
C3450      C3454   1.453       .  S
C3451      N3458   1.157       .  T
C3452      N3459   1.156       .  T
C3453      N3457   1.157       .  T
C3454      N3460   1.157       .  T
C3456      N3462   1.157       .  T
C3465      C3470   1.413       .  A
C3465      C3483   1.450       .  S
C3466      C3471   1.496       .  S
C3466      C3467   1.410       .  A
C3467      C3472   1.452       .  S
C3468      C3469   1.415       .  A
C3468      C3484   1.452       .  S
C3469      C3470   1.416       .  A
C3470      C3473   1.451       .  S
C3471      C3474   1.406       .  A
C3471      C3478   1.402       .  A
C3472      N3489   1.157       .  T
C3473      N3491   1.158       .  T
C3474      C3475   1.416       .  A
C3474      C3479   1.451       .  S
C3475      C3476   1.425       .  A
C3475      C3481   1.447       .  S
C3476      C3477   1.424       .  A
C3477      C3478   1.409       .  A
C3477      C3480   1.444       .  S
C3478      C3482   1.455       .  S
C3479      N3486   1.157       .  T
C3480      N3487   1.155       .  T
C3481      N3485   1.157       .  T
C3482      N3488   1.157       .  T
C3483      N3492   1.157       .  T
C3484      N3490   1.157       .  T
C3493      C3494   1.416       .  A
C3493      C3498   1.411       .  A
C3493      C3511   1.452       .  S
C3494      C3499   1.519       .  S
C3494      C3495   1.417       .  A
C3495      C3496   1.415       .  A
C3495      C3500   1.451       .  S
C3496      C3497   1.417       .  A
C3496      C3512   1.447       .  S
C3497      C3498   1.415       .  A
C3498      C3501   1.446       .  S
C3499      C3502   1.412       .  A
C3499      C3506   1.414       .  A
C3500      N3517   1.157       .  T
C3501      N3519   1.156       .  T
C3502      C3503   1.412       .  A
C3502      C3507   1.452       .  S
C3503      C3504   1.420       .  A
C3503      C3509   1.436       .  S
C3504      C3505   1.419       .  A
C3505      C3506   1.413       .  A
C3505      C3508   1.440       .  S
C3506      C3510   1.450       .  S
C3507      N3514   1.157       .  T
C3508      N3515   1.157       .  T
C3509      N3513   1.152       .  T
C3510      N3516   1.157       .  T
C3511      N3520   1.157       .  T
C3512      N3518   1.156       .  T
C3521      C3522   1.410       .  A
C3521      C3526   1.417       .  A
C3521      C3539   1.451       .  S
C3522      C3523   1.407       .  A
C3523      C3524   1.415       .  A
C3524      C3525   1.425       .  A
C3524      C3540   1.447       .  S
C3525      C3526   1.423       .  A
C3526      C3529   1.447       .  S
C3527      C3530   1.410       .  A
C3527      C3534   1.408       .  A
C3528      N3545   1.157   1_545  T
C3529      N3547   1.157       .  T
C3530      C3531   1.416       .  A
C3531      C3532   1.418       .  A
C3531      C3537   1.445       .  S
C3532      C3533   1.419       .  A
C3533      C3534   1.414       .  A
C3533      C3536   1.445       .  S
C3534      C3538   1.451       .  S
C3535      N3542   1.157       .  T
C3536      N3543   1.156       .  T
C3537      N3541   1.156       .  T
C3538      N3544   1.156       .  T
C3539      N3548   1.157       .  T
C3540      N3546   1.157       .  T
C3549      C3550   1.402       .  A
C3549      C3554   1.411       .  A
C3550      C3551   1.403       .  A
C3551      C3552   1.410       .  A
C3551      C3556   1.451       .  S
C3552      C3553   1.426       .  A
C3552      C3568   1.447       .  S
C3553      C3554   1.429       .  A
C3554      C3557   1.447       .  S
C3555      C3558   1.404       .  A
C3555      C3562   1.404       .  A
C3556      N3573   1.157       .  T
C3557      N3575   1.157       .  T
C3558      C3559   1.412       .  A
C3558      C3563   1.451       .  S
C3559      C3560   1.424       .  A
C3559      C3565   1.448       .  S
C3560      C3561   1.425       .  A
C3561      C3562   1.409       .  A
C3561      C3564   1.448       .  S
C3562      C3566   1.453       .  S
C3563      N3570   1.157       .  T
C3564      N3571   1.157       .  T
C3565      N3569   1.157       .  T
C3567      N3576   1.157       .  T
C3568      N3574   1.158       .  T
