geometry optimzed in LAMMPS
_audit_creation_date              2020-12-01 
_audit_creation_method            'lammps2cif' 
_symmetry_space_group_name_H-M    'P1' 
_symmetry_Int_Tables_number       1 
_symmetry_cell_setting            triclinic 
loop_ 
_symmetry_equiv_pos_as_xyz 
  x,y,z 
_cell_length_a                    48.7424517 
_cell_length_b                    48.81910203611693 
_cell_length_c                    48.755986460406184 
_cell_angle_alpha                 89.99008982907853 
_cell_angle_beta                  90.18731820532551 
_cell_angle_gamma                 90.15271707383565 
loop_ 
_atom_site_label 
_atom_site_type_symbol 
_atom_site_fract_x 
_atom_site_fract_y 
_atom_site_fract_z 
_atom_site_charge 
N1          N  0.82133437  0.97212185  0.05793144    -0.03100
C2          C  0.84630578  0.98442290  0.06148228    -0.00500
C3          C  0.84479663  0.01122252  0.05232196    -0.23400
C4          C  0.81869672  0.01518274  0.04221256    -0.23600
C5          C  0.80443918  0.99094537  0.04583821    -0.00600
H6          H  0.86108119  0.02632559  0.05264440     0.13200
H7          H  0.81113899  0.03360546  0.03245873     0.13200
N8          N  0.07726117  0.95433866  0.15148418    -0.26900
N9          N  0.08384958  0.96179326  0.17674782    -0.34700
C10         C  0.11067683  0.95785945  0.18117533     0.01500
C11         C  0.12260258  0.94770247  0.15770369     0.07500
C12         C  0.10074884  0.94602715  0.13896861    -0.05600
H13         H  0.12143156  0.96495926  0.19929679     0.08200
H14         H  0.10225562  0.94107381  0.11740265     0.09400
Cu15       Cu  0.05961358  0.98427498  0.20275255     0.44200
Cu16       Cu  0.03571284  0.95850189  0.13699150     0.42000
Cu17       Cu  0.99013147  0.99023232  0.18987109     0.43900
N18         N  0.03570598  0.01104437  0.22471304    -0.34300
N19         N  0.00897473  0.01260686  0.22085059    -0.28500
C20         C  0.99888561  0.03274491  0.23675043    -0.04600
C21         C  0.02058211  0.04465441  0.25082433     0.07600
C22         C  0.04361816  0.03041586  0.24265271     0.01400
H23         H  0.97774686  0.03944534  0.23662627     0.09000
H24         H  0.06466611  0.03440841  0.24856970     0.08100
N25         N  0.97638125  0.97271169  0.15347943    -0.35700
N26         N  0.99184860  0.96279824  0.13348016    -0.27900
C27         C  0.97495331  0.95635400  0.11218467    -0.03100
C28         C  0.94774660  0.96182724  0.11951127     0.05500
C29         C  0.94987958  0.97238284  0.14572876     0.03600
H30         H  0.98189290  0.94852767  0.09265390     0.08700
H31         H  0.93336670  0.98073905  0.15788425     0.07500
N32         N  0.78357441  0.86533690  0.08590642    -0.03100
C33         C  0.78581988  0.85195852  0.11034276    -0.00500
C34         C  0.76976749  0.82857202  0.11006824    -0.23400
C35         C  0.75758449  0.82723863  0.08458621    -0.23600
C36         C  0.76642041  0.84992448  0.07011087    -0.00600
H37         H  0.76753397  0.81382274  0.12648788     0.13200
H38         H  0.74387603  0.81133716  0.07729889     0.13200
N39         N  0.89067062  0.87025661  0.33255791    -0.26900
N40         N  0.90386999  0.84825569  0.34129447    -0.34700
C41         C  0.91092054  0.85159559  0.36764075     0.01500
C42         C  0.90202775  0.87689132  0.37650226     0.07500
C43         C  0.88921417  0.88834224  0.35362956    -0.05600
H44         H  0.92418643  0.83772643  0.37877851     0.08200
H45         H  0.88177407  0.90911660  0.35174051     0.09400
Cu46       Cu  0.91962900  0.81738155  0.31699739     0.44200
Cu47       Cu  0.87949450  0.87465458  0.29089623     0.42000
Cu48       Cu  0.92177015  0.82901861  0.24693365     0.43900
N49         N  0.94423907  0.79415317  0.29156718    -0.34300
N50         N  0.94622162  0.79942576  0.26511766    -0.28500
C51         C  0.96509695  0.78268500  0.25402388    -0.04600
C52         C  0.97542123  0.76603492  0.27463536     0.07600
C53         C  0.96171204  0.77390722  0.29816803     0.01400
H54         H  0.97099256  0.78278544  0.23265182     0.09000
H55         H  0.96480580  0.76613241  0.31872180     0.08100
N56         N  0.88910667  0.85255512  0.23326688    -0.35700
N57         N  0.87330422  0.86853786  0.24840432    -0.27900
C58         C  0.85234091  0.87749351  0.23252875    -0.03100
C59         C  0.85494562  0.86627870  0.20633939     0.05500
C60         C  0.87869597  0.85091051  0.20781800     0.03600
H61         H  0.83621812  0.89077586  0.23977154     0.08700
H62         H  0.88702285  0.83798049  0.19187935     0.07500
N63         N  0.71195556  0.86678410  0.94319894    -0.03100
C64         C  0.70570972  0.85411464  0.91918339    -0.00500
C65         C  0.71777143  0.82850930  0.91866279    -0.23400
C66         C  0.73178466  0.82548547  0.94310369    -0.23600
C67         C  0.72809375  0.84942187  0.95784133    -0.00600
H68         H  0.71640841  0.81356332  0.90232387     0.13200
H69         H  0.74309411  0.80755302  0.94955937     0.13200
N70         N  0.61365817  0.91797461  0.69701437    -0.26900
N71         N  0.58759676  0.92048516  0.68967563    -0.34700
C72         C  0.58590790  0.92466149  0.66248078     0.01500
C73         C  0.61195448  0.92458343  0.65151004     0.07500
C74         C  0.62907287  0.91989139  0.67402578    -0.05600
H75         H  0.56688717  0.92400865  0.65098360     0.08200
H76         H  0.65086132  0.91579776  0.67332480     0.09400
Cu77       Cu  0.55437091  0.90914394  0.71339662     0.44200
Cu78       Cu  0.62619873  0.90843176  0.73789310     0.42000
Cu79       Cu  0.56803837  0.88846316  0.78056961     0.43900
N80         N  0.52606417  0.88717662  0.73605287    -0.34300
N81         N  0.53120339  0.87968318  0.76154113    -0.28500
C82         C  0.51157453  0.86225374  0.76993191    -0.04600
C83         C  0.49333566  0.85828572  0.74848165     0.07600
C84         C  0.50308296  0.87451223  0.72732634     0.01400
H85         H  0.51196513  0.85142451  0.78928872     0.09000
H86         H  0.49533804  0.87536918  0.70652617     0.08100
N87         N  0.60758835  0.89250556  0.79525878    -0.35700
N88         N  0.62940432  0.89904638  0.78052888    -0.27900
C89         C  0.65174355  0.89739680  0.79714092    -0.03100
C90         C  0.64333183  0.88946140  0.82339117     0.05500
C91         C  0.61522536  0.88660443  0.82103545     0.03600
H92         H  0.67261772  0.90051300  0.79034444     0.08700
H93         H  0.60122109  0.87989122  0.83685919     0.07500
N94         N  0.68063570  0.97280521  0.97954826    -0.03100
C95         C  0.65633982  0.98572414  0.97420953    -0.00500
C96         C  0.65693860  0.01169276  0.98563343    -0.23400
C97         C  0.68200178  0.01474785  0.99845678    -0.23600
C98         C  0.69638463  0.99079867  0.99423925    -0.00600
H99         H  0.64112769  0.02714464  0.98420918     0.13200
H100        H  0.68909937  0.03265966  0.00949032     0.13200
N101        N  0.44606366  0.93682705  0.84613085    -0.26900
N102        N  0.44464887  0.94016020  0.81923412    -0.34700
C103        C  0.41907845  0.93546607  0.81043056     0.01500
C104        C  0.40241774  0.92958792  0.83246877     0.07500
C105        C  0.42031742  0.93060275  0.85505070    -0.05600
H106        H  0.41222000  0.94011756  0.78981497     0.08200
H107        H  0.41450789  0.92962518  0.87642217     0.09400
Cu108      Cu  0.47146940  0.96260323  0.79578490     0.44200
Cu109      Cu  0.48385385  0.94485964  0.86762230     0.42000
Cu110      Cu  0.53268126  0.98297982  0.82307614     0.43900
N111        N  0.49245613  0.99533128  0.77939971    -0.34300
N112        N  0.51672148  0.00234529  0.78911438    -0.28500
C113        C  0.52511924  0.02547388  0.77675437    -0.04600
C114        C  0.50467689  0.03370696  0.75889778     0.07600
C115        C  0.48416807  0.01422052  0.76109145     0.01400
H116        H  0.54370192  0.03654124  0.78187581     0.09000
H117        H  0.46442464  0.01423200  0.75088324     0.08100
N118        N  0.54246332  0.96727207  0.86111211    -0.35700
N119        N  0.52569139  0.95449285  0.87825068    -0.27900
C120        C  0.53989281  0.94982034  0.90182879    -0.03100
C121        C  0.56673105  0.95973053  0.89892464     0.05500
C122        C  0.56710393  0.97084830  0.87293190     0.03600
H123        H  0.53133503  0.94022292  0.91988837     0.08700
H124        H  0.58381281  0.98205194  0.86358250     0.07500
N125        N  0.05487697  0.85210102  0.92482787    -0.03100
C126        C  0.06106331  0.87631999  0.93715748    -0.00500
C127        C  0.05407866  0.87527074  0.96452752    -0.23400
C128        C  0.04276198  0.84983193  0.96902695    -0.23600
C129        C  0.04305049  0.83580868  0.94426650    -0.00600
H130        H  0.05638104  0.89149916  0.97948328     0.13200
H131        H  0.03395197  0.84281034  0.98813323     0.13200
N132        N  0.14760392  0.10457730  0.91065590    -0.26900
N133        N  0.17152189  0.11129810  0.92160378    -0.34700
C134        C  0.17558365  0.13828974  0.91962925     0.01500
C135        C  0.15316673  0.15010658  0.90716753     0.07500
C136        C  0.13548694  0.12806647  0.90181462    -0.05600
H137        H  0.19243255  0.14900385  0.92943092     0.08200
H138        H  0.11469963  0.12931468  0.89408535     0.09400
Cu139      Cu  0.19499386  0.08685075  0.94632119     0.44200
Cu140      Cu  0.13435433  0.06290711  0.91176281     0.42000
Cu141      Cu  0.18493112  0.01797023  0.95048972     0.43900
N142        N  0.21415729  0.06434333  0.97614694    -0.34300
N143        N  0.21155250  0.03751578  0.97731574    -0.28500
C144        C  0.22565823  0.02816727  0.99918942    -0.04600
C145        C  0.23711300  0.05053656  0.01256226     0.07600
C146        C  0.22936652  0.07311449  0.99739655     0.01400
H147        H  0.22655545  0.00694325  0.00551058     0.09000
H148        H  0.23427389  0.09434665  0.00152414     0.08100
N149        N  0.15151466  0.00430979  0.92781941    -0.35700
N150        N  0.13253261  0.01932924  0.91537408    -0.27900
C151        C  0.11251838  0.00215194  0.90642423    -0.03100
C152        C  0.11963195  0.97526667  0.91305489     0.05500
C153        C  0.14430388  0.97778891  0.92678216     0.03600
H154        H  0.09377687  0.00875497  0.89652002     0.08700
H155        H  0.15537532  0.96163170  0.93717032     0.07500
N156        N  0.07345636  0.83103105  0.81163196    -0.03100
C157        C  0.09584845  0.83771226  0.79628138    -0.00500
C158        C  0.09178432  0.82948047  0.76941339    -0.23400
C159        C  0.06616069  0.81765907  0.76806077    -0.23600
C160        C  0.05534236  0.81889304  0.79414489    -0.00600
H161        H  0.10605764  0.83171061  0.75259877     0.13200
H162        H  0.05662535  0.80867902  0.75010495     0.13200
N163        N  0.32736406  0.92614751  0.82344997    -0.26900
N164        N  0.33452540  0.94846485  0.80988310    -0.34700
C165        C  0.36104055  0.95400999  0.81420870     0.01500
C166        C  0.37223042  0.93419731  0.83100047     0.07500
C167        C  0.35016520  0.91656144  0.83650293    -0.05600
H168        H  0.37213797  0.96998561  0.80352806     0.08200
H169        H  0.35115519  0.89726006  0.84735411     0.09400
Cu170      Cu  0.31164549  0.96799479  0.78037653     0.44200
Cu171      Cu  0.28623160  0.91124950  0.81982785     0.42000
Cu172      Cu  0.24368592  0.95495127  0.77064874     0.43900
N173        N  0.29019620  0.98723058  0.74962657    -0.34300
N174        N  0.26364651  0.98339816  0.74627202    -0.28500
C175        C  0.25454506  0.00038496  0.72643490    -0.04600
C176        C  0.27680895  0.01526322  0.71675834     0.07600
C177        C  0.29904388  0.00626135  0.73187899     0.01400
H178        H  0.23337910  0.00211862  0.71992794     0.09000
H179        H  0.31986786  0.01393220  0.73104192     0.08100
N180        N  0.22903828  0.92360135  0.79533249    -0.35700
N181        N  0.24323281  0.90709347  0.81170635    -0.27900
C182        C  0.22563455  0.88801396  0.82171753    -0.03100
C183        C  0.19942390  0.89313406  0.81135481     0.05500
C184        C  0.20260894  0.91583471  0.79493048     0.03600
H185        H  0.23150423  0.87141262  0.83519251     0.08700
H186        H  0.18695546  0.92531849  0.78235706     0.07500
N187        N  0.93605419  0.74990439  0.81753348    -0.03100
C188        C  0.91048171  0.74595970  0.80701723    -0.00500
C189        C  0.90801332  0.75934792  0.78216986    -0.23400
C190        C  0.93242183  0.77286113  0.77782939    -0.23600
C191        C  0.94910095  0.76744546  0.80020825    -0.00600
H192        H  0.89011723  0.75985488  0.76898719     0.13200
H193        H  0.93712489  0.78608127  0.76064724     0.13200
N194        N  0.68707622  0.64873332  0.84501728    -0.26900
N195        N  0.68046484  0.62459797  0.83447954    -0.34700
C196        C  0.65348386  0.62035631  0.83671309     0.01500
C197        C  0.64146781  0.64287393  0.84862849     0.07500
C198        C  0.66344559  0.66074630  0.85365942    -0.05600
H199        H  0.64286775  0.60320022  0.82740203     0.08200
H200        H  0.66204694  0.68160296  0.86100033     0.09400
Cu201      Cu  0.70419807  0.60015388  0.80977229     0.44200
Cu202      Cu  0.72860862  0.66323613  0.84410309     0.42000
Cu203      Cu  0.77214378  0.61195224  0.80831549     0.43900
N204        N  0.72850492  0.57939372  0.78236566    -0.34300
N205        N  0.75525558  0.58301409  0.78291784    -0.28500
C206        C  0.76686613  0.56796289  0.76306857    -0.04600
C207        C  0.74614892  0.55452459  0.74905507     0.07600
C208        C  0.72201003  0.56223665  0.76176585     0.01400
H209        H  0.78856491  0.56774556  0.75847318     0.09000
H210        H  0.70136330  0.55600529  0.75639631     0.08100
N211        N  0.78652677  0.64704455  0.82646969    -0.35700
N212        N  0.77217119  0.66637158  0.83887057    -0.27900
C213        C  0.78979038  0.68708397  0.84503559    -0.03100
C214        C  0.81624267  0.68012878  0.83616843     0.05500
C215        C  0.81275452  0.65480520  0.82415090     0.03600
H216        H  0.78369013  0.70622368  0.85434327     0.08700
H217        H  0.82759376  0.64350788  0.81231139     0.07500
N218        N  0.96787115  0.71853515  0.92542342    -0.03100
C219        C  0.96381843  0.69350952  0.93695389    -0.00500
C220        C  0.97440936  0.69318101  0.96329552    -0.23400
C221        C  0.98578939  0.71861895  0.96793102    -0.23600
C222        C  0.98160549  0.73382458  0.94438716    -0.00600
H223        H  0.97372581  0.67630872  0.97767804     0.13200
H224        H  0.99659506  0.72511381  0.98624175     0.13200
N225        N  0.85005824  0.47571108  0.90525188    -0.26900
N226        N  0.82411836  0.47241169  0.91240723    -0.34700
C227        C  0.81672557  0.44623057  0.90922031     0.01500
C228        C  0.83894754  0.43118979  0.90044122     0.07500
C229        C  0.85999058  0.45067673  0.89810414    -0.05600
H230        H  0.79759289  0.43793725  0.91683800     0.08200
H231        H  0.88141357  0.44647976  0.89424763     0.09400
Cu232      Cu  0.80202743  0.49822384  0.93724782     0.44200
Cu233      Cu  0.86933003  0.51486904  0.90978071     0.42000
Cu234      Cu  0.82835833  0.56003890  0.95654584     0.43900
N235        N  0.78562183  0.51939842  0.96982621    -0.34300
N236        N  0.79499325  0.54377235  0.97675535    -0.28500
C237        C  0.78100406  0.55293828  0.99865930    -0.04600
C238        C  0.76236863  0.53286226  0.00610796     0.07600
C239        C  0.76596547  0.51180237  0.98753576     0.01400
H240        H  0.78492703  0.57213252  0.00906438     0.09000
H241        H  0.75521914  0.49238718  0.98700576     0.08100
N242        N  0.86215523  0.57231233  0.93426574    -0.35700
N243        N  0.87749469  0.55724573  0.91772102    -0.27900
C244        C  0.89782629  0.57357397  0.90794277    -0.03100
C245        C  0.89458778  0.59999537  0.91852197     0.05500
C246        C  0.87204647  0.59791896  0.93538491     0.03600
H247        H  0.91392206  0.56675199  0.89435468     0.08700
H248        H  0.86388105  0.61367839  0.94860606     0.07500
N249        N  0.33619114  0.48552274  0.54895569    -0.03100
C250        C  0.36213584  0.49460134  0.55434641    -0.00500
C251        C  0.36501827  0.52124071  0.54501672    -0.23400
C252        C  0.34010900  0.52884907  0.53392471    -0.23600
C253        C  0.32273966  0.50664375  0.53671952    -0.00600
H254        H  0.38328223  0.53384168  0.54623062     0.13200
H255        H  0.33522829  0.54841386  0.52471450     0.13200
N256        N  0.58226721  0.42873349  0.64710886    -0.26900
N257        N  0.58988811  0.43655549  0.67199263    -0.34700
C258        C  0.61725244  0.43482359  0.67433631     0.01500
C259        C  0.62806928  0.42562082  0.64989011     0.07500
C260        C  0.60521749  0.42224306  0.63288410    -0.05600
H261        H  0.62879266  0.44288311  0.69155049     0.08200
H262        H  0.60552602  0.41788804  0.61113329     0.09400
Cu263      Cu  0.56536578  0.45666863  0.70003640     0.44200
Cu264      Cu  0.54083752  0.43158246  0.63353761     0.42000
Cu265      Cu  0.49539125  0.45701502  0.68886832     0.43900
N266        N  0.53947091  0.48066704  0.72338155    -0.34300
N267        N  0.51260455  0.47941645  0.72039440    -0.28500
C268        C  0.50086634  0.49851092  0.73641745    -0.04600
C269        C  0.52154945  0.51280747  0.74968237     0.07600
C270        C  0.54575855  0.50099717  0.74092750     0.01400
H271        H  0.47917063  0.50313411  0.73663007     0.09000
H272        H  0.56640899  0.50734958  0.74613625     0.08100
N273        N  0.48263218  0.44770529  0.64956742    -0.35700
N274        N  0.49814357  0.43948385  0.62893209    -0.27900
C275        C  0.48254993  0.43984808  0.60584537    -0.03100
C276        C  0.45622949  0.44926171  0.61234158     0.05500
C277        C  0.45743619  0.45364847  0.64033198     0.03600
H278        H  0.49010800  0.43420137  0.58583832     0.08700
H279        H  0.44158763  0.46249430  0.65300956     0.07500
N280        N  0.30023241  0.37796972  0.57555129    -0.03100
C281        C  0.30634739  0.36507129  0.59955085    -0.00500
C282        C  0.29385953  0.33962361  0.60011452    -0.23400
C283        C  0.27958525  0.33684578  0.57584471    -0.23600
C284        C  0.28381276  0.36062967  0.56108128    -0.00600
H285        H  0.29451363  0.32493149  0.61672458     0.13200
H286        H  0.26669570  0.31972116  0.56999461     0.13200
N287        N  0.40398005  0.38006612  0.82731555    -0.26900
N288        N  0.41549044  0.35728908  0.83648613    -0.34700
C289        C  0.42406313  0.36086867  0.86236350     0.01500
C290        C  0.41790125  0.38710537  0.87066898     0.07500
C291        C  0.40514257  0.39891330  0.84783351    -0.05600
H292        H  0.43627941  0.34610911  0.87355331     0.08200
H293        H  0.39930394  0.42015977  0.84559368     0.09400
Cu294      Cu  0.42697462  0.32402366  0.81323070     0.44200
Cu295      Cu  0.39130962  0.38369429  0.78545835     0.42000
Cu296      Cu  0.42785209  0.33257095  0.74282240     0.43900
N297        N  0.44935130  0.29832322  0.78838495    -0.34300
N298        N  0.45072791  0.30220253  0.76166599    -0.28500
C299        C  0.46905973  0.28462928  0.75100532    -0.04600
C300        C  0.47974110  0.26900640  0.77222815     0.07600
C301        C  0.46674019  0.27824832  0.79563512     0.01400
H302        H  0.47480038  0.28390857  0.72960373     0.09000
H303        H  0.47062243  0.27187354  0.81653818     0.08100
N304        N  0.39885757  0.35980022  0.72797062    -0.35700
N305        N  0.38462282  0.37773220  0.74248770    -0.27900
C306        C  0.36590924  0.38942756  0.72546820    -0.03100
C307        C  0.36862800  0.37820181  0.69918093     0.05500
C308        C  0.38988770  0.35973695  0.70192211     0.03600
H309        H  0.35131620  0.40478508  0.73182730     0.08700
H310        H  0.39750675  0.34606247  0.68624864     0.07500
N311        N  0.19254148  0.49163663  0.48723078    -0.03100
C312        C  0.16927933  0.50627731  0.48074769    -0.00500
C313        C  0.17276690  0.53370083  0.48659121    -0.23400
C314        C  0.19895811  0.53679983  0.49615548    -0.23600
C315        C  0.21091565  0.51120495  0.49600552    -0.00600
H316        H  0.15801869  0.54992239  0.48331490     0.13200
H317        H  0.20852780  0.55586822  0.50233689     0.13200
N318        N  0.94239331  0.45005909  0.39246971    -0.26900
N319        N  0.93500941  0.44670274  0.36652712    -0.34700
C320        C  0.90777674  0.44269609  0.36503139     0.01500
C321        C  0.89697024  0.44377435  0.39110559     0.07500
C322        C  0.91948565  0.44888692  0.40802765    -0.05600
H323        H  0.89621538  0.44256812  0.34604346     0.08200
H324        H  0.91891433  0.45356988  0.42970501     0.09400
Cu325      Cu  0.95904648  0.45647237  0.33309356     0.44200
Cu326      Cu  0.98316713  0.45959630  0.40451326     0.42000
Cu327      Cu  0.02583024  0.48062379  0.34662118     0.43900
N328        N  0.98161275  0.47755774  0.30409966    -0.34300
N329        N  0.00676733  0.48635280  0.30906893    -0.28500
C330        C  0.01510591  0.50207362  0.28801808    -0.04600
C331        C  0.99395661  0.50354805  0.26906292     0.07600
C332        C  0.97303436  0.48772458  0.27990405     0.01400
H333        H  0.03434871  0.51315253  0.28749673     0.09000
H334        H  0.95259286  0.48503415  0.27160504     0.08100
N335        N  0.04018242  0.47728185  0.38650281    -0.35700
N336        N  0.02536519  0.46980658  0.40793640    -0.27900
C337        C  0.04174838  0.47050240  0.43042199    -0.03100
C338        C  0.06798006  0.47916082  0.42270563     0.05500
C339        C  0.06589741  0.48301126  0.39464952     0.03600
H340        H  0.03508699  0.46472000  0.45073847     0.08700
H341        H  0.08191663  0.49001544  0.38101537     0.07500
N342        N  0.20363983  0.38269042  0.44878487    -0.03100
C343        C  0.19677712  0.37206882  0.42379431    -0.00500
C344        C  0.20589886  0.34533273  0.42203432    -0.23400
C345        C  0.21941371  0.33957793  0.44617977    -0.23600
C346        C  0.21802081  0.36285525  0.46223138    -0.00600
H347        H  0.20425176  0.33195655  0.40440318     0.13200
H348        H  0.23042388  0.32093460  0.45090345     0.13200
N349        N  0.12541441  0.41521205  0.19032234    -0.26900
N350        N  0.09970545  0.41632023  0.18148138    -0.34700
C351        C  0.09932189  0.41740481  0.15395962     0.01500
C352        C  0.12585907  0.41656728  0.14433821     0.07500
C353        C  0.14194370  0.41477314  0.16801892    -0.05600
H354        H  0.08090256  0.41516578  0.14170107     0.08200
H355        H  0.16381886  0.41115366  0.16882967     0.09400
Cu356      Cu  0.06534093  0.40632458  0.20420306     0.44200
Cu357      Cu  0.13592365  0.41073563  0.23264003     0.42000
Cu358      Cu  0.07798896  0.38185009  0.26989365     0.43900
N359        N  0.03607610  0.38426557  0.22562118    -0.34300
N360        N  0.04095824  0.37513359  0.25061073    -0.28500
C361        C  0.01987403  0.35936824  0.25879088    -0.04600
C362        C  0.00095160  0.35813640  0.23763227     0.07600
C363        C  0.01186996  0.37416262  0.21688198     0.01400
H364        H  0.01921196  0.34828954  0.27799788     0.09000
H365        H  0.00350931  0.37719668  0.19652925     0.08100
N366        N  0.11483860  0.39203498  0.28797053    -0.35700
N367        N  0.13609616  0.40366599  0.27583154    -0.27900
C368        C  0.15538044  0.40864828  0.29540486    -0.03100
C369        C  0.14541825  0.39990755  0.32091409     0.05500
C370        C  0.12000081  0.38885855  0.31474864     0.03600
H371        H  0.17518111  0.41785723  0.29143409     0.08700
H372        H  0.10620622  0.37832656  0.32846695     0.07500
N373        N  0.57878176  0.35070157  0.33197222    -0.03100
C374        C  0.60385892  0.35541760  0.32084915    -0.00500
C375        C  0.60364488  0.34754753  0.29356019    -0.23400
C376        C  0.57774348  0.33743342  0.28800866    -0.23600
C377        C  0.56290645  0.33975076  0.31196782    -0.00600
H378        H  0.62040490  0.34922885  0.27915371     0.13200
H379        H  0.57067416  0.32885972  0.26877234     0.13200
N380        N  0.82273254  0.44858946  0.38870503    -0.26900
N381        N  0.83016589  0.47458063  0.39116109    -0.34700
C382        C  0.85724399  0.47603722  0.39620462     0.01500
C383        C  0.86789238  0.44988162  0.39671206     0.07500
C384        C  0.84543089  0.43296425  0.39149802    -0.05600
H385        H  0.86897357  0.49488240  0.39570503     0.08200
H386        H  0.84601874  0.41115679  0.38760815     0.09400
Cu387      Cu  0.80695683  0.50763879  0.37831513     0.44200
Cu388      Cu  0.78250545  0.43621200  0.37777932     0.42000
Cu389      Cu  0.74216448  0.49266480  0.35006558     0.43900
N390        N  0.78584261  0.53551494  0.35426216    -0.34300
N391        N  0.76138912  0.52992664  0.34396740    -0.28500
C392        C  0.75399784  0.55008112  0.32670522    -0.04600
C393        C  0.77507620  0.56909255  0.32573201     0.07600
C394        C  0.79495623  0.55923282  0.34348871     0.01400
H395        H  0.73561189  0.54980946  0.31421609     0.09000
H396        H  0.81515622  0.56777272  0.34706591     0.08100
N397        N  0.72682125  0.45363155  0.35611675    -0.35700
N398        N  0.74077686  0.43269461  0.36617958    -0.27900
C399        C  0.72387346  0.41065924  0.36686062    -0.03100
C400        C  0.69806734  0.41833392  0.35707762     0.05500
C401        C  0.70116196  0.44560838  0.35005572     0.03600
H402        H  0.72990865  0.39049681  0.37379067     0.08700
H403        H  0.68617544  0.45864743  0.34023436     0.07500
N404        N  0.54121569  0.36801278  0.44052791    -0.03100
C405        C  0.54826661  0.39039915  0.45559106    -0.00500
C406        C  0.53701936  0.38855035  0.48144142    -0.23400
C407        C  0.52269628  0.36417305  0.48229544    -0.23600
C408        C  0.52508290  0.35195709  0.45672490    -0.00600
H409        H  0.53897842  0.40332290  0.49787960     0.13200
H410        H  0.51127141  0.35643392  0.49965346     0.13200
N411        N  0.65562838  0.60996988  0.40742140    -0.26900
N412        N  0.68018646  0.61631208  0.41718490    -0.34700
C413        C  0.68471440  0.64318178  0.41445418     0.01500
C414        C  0.66205724  0.65522224  0.40263059     0.07500
C415        C  0.64373228  0.63351315  0.39844552    -0.05600
H416        H  0.70236277  0.65369111  0.42298436     0.08200
H417        H  0.62268780  0.63508421  0.39152294     0.09400
Cu418      Cu  0.70539711  0.59150098  0.44009017     0.44200
Cu419      Cu  0.64029049  0.56919570  0.41092244     0.42000
Cu420      Cu  0.69134299  0.52353460  0.44714601     0.43900
N421        N  0.72882015  0.56730867  0.46546578    -0.34300
N422        N  0.72468059  0.54068665  0.46705282    -0.28500
C423        C  0.74216067  0.52998108  0.48561517    -0.04600
C424        C  0.75758402  0.55124801  0.49650700     0.07600
C425        C  0.74851123  0.57461573  0.48334913     0.01400
H426        H  0.74233991  0.50875909  0.49200699     0.09000
H427        H  0.75527948  0.59544100  0.48692396     0.08100
N428        N  0.65266141  0.51196149  0.43388173    -0.35700
N429        N  0.63406884  0.52714182  0.42114353    -0.27900
C430        C  0.61112060  0.51168892  0.41796223    -0.03100
C431        C  0.61538250  0.48589958  0.42980383     0.05500
C432        C  0.64208627  0.48721167  0.43936721     0.03600
H433        H  0.59280198  0.51885645  0.40776321     0.08700
H434        H  0.65298369  0.47153409  0.45063383     0.07500
N435        N  0.45410195  0.23346214  0.42648280    -0.03100
C436        C  0.44888465  0.20824954  0.43746852    -0.00500
C437        C  0.45957295  0.20683235  0.46375491    -0.23400
C438        C  0.47248728  0.23139411  0.46885621    -0.23600
C439        C  0.46918407  0.24733278  0.44570192    -0.00600
H440        H  0.45831916  0.18963661  0.47770688     0.13200
H441        H  0.48361141  0.23687508  0.48730860     0.13200
N442        N  0.35820305  0.98814866  0.37622212    -0.26900
N443        N  0.33284685  0.97836574  0.37642367    -0.34700
C444        C  0.33349348  0.95106778  0.37312446     0.01500
C445        C  0.36044119  0.94275742  0.37102575     0.07500
C446        C  0.37560874  0.96683217  0.37338409    -0.05600
H447        H  0.31591630  0.93780728  0.37605204     0.08200
H448        H  0.39765139  0.96837931  0.37558945     0.09400
Cu449      Cu  0.29906160  0.99922636  0.39110878     0.44200
Cu450      Cu  0.36780716  0.02965793  0.38431228     0.42000
Cu451      Cu  0.31083328  0.06792426  0.41228068     0.43900
N452        N  0.27250243  0.01980913  0.41690312    -0.34300
N453        N  0.27694709  0.04537735  0.42459775    -0.28500
C454        C  0.25870842  0.05215700  0.44403460    -0.04600
C455        C  0.24212177  0.02967843  0.44905791     0.07600
C456        C  0.25138257  0.00950996  0.43141606     0.01400
H457        H  0.25876785  0.07142182  0.45499083     0.09000
H458        H  0.24449155  0.98844698  0.43044384     0.08100
N459        N  0.34849745  0.08560244  0.40329937    -0.35700
N460        N  0.36974410  0.07196794  0.39354574    -0.27900
C461        C  0.39134975  0.08934428  0.39217231    -0.03100
C462        C  0.38323301  0.11520401  0.40124263     0.05500
C463        C  0.35594143  0.11167776  0.40837141     0.03600
H464        H  0.41170888  0.08344656  0.38572190     0.08700
H465        H  0.34276848  0.12651003  0.41815396     0.07500
N466        N  0.44060348  0.26988072  0.31645024    -0.03100
C467        C  0.41915945  0.26485007  0.29924788    -0.00500
C468        C  0.42401176  0.27669950  0.27400994    -0.23400
C469        C  0.44914396  0.28942958  0.27578066    -0.23600
C470        C  0.45908890  0.28519879  0.30211042    -0.00600
H471        H  0.41040671  0.27677354  0.25642670     0.13200
H472        H  0.45875606  0.30142070  0.25977974     0.13200
N473        N  0.19094362  0.17800937  0.34672648    -0.26900
N474        N  0.18388880  0.15185774  0.34546207    -0.34700
C475        C  0.15691047  0.14929731  0.34984045     0.01500
C476        C  0.14557707  0.17493170  0.35345004     0.07500
C477        C  0.16786967  0.19279743  0.35118692    -0.05600
H478        H  0.14562638  0.13046868  0.34643232     0.08200
H479        H  0.16690353  0.21490279  0.35001578     0.09400
Cu480      Cu  0.20700846  0.12103121  0.32818278     0.44200
Cu481      Cu  0.23167152  0.19112925  0.33870617     0.42000
Cu482      Cu  0.27590021  0.13238795  0.31944630     0.43900
N483        N  0.23052670  0.09483967  0.30483325    -0.34300
N484        N  0.25726648  0.09830728  0.30286572    -0.28500
C485        C  0.26746149  0.07990705  0.28512461    -0.04600
C486        C  0.24584083  0.06449312  0.27504498     0.07600
C487        C  0.22268287  0.07450987  0.28790523     0.01400
H488        H  0.28860477  0.07923319  0.27847250     0.09000
H489        H  0.20165828  0.06816737  0.28451759     0.08100
N490        N  0.28968927  0.17174522  0.32616024    -0.35700
N491        N  0.27458583  0.19353580  0.33179089    -0.27900
C492        C  0.29118343  0.21584248  0.33110299    -0.03100
C493        C  0.31775845  0.20742010  0.32475424     0.05500
C494        C  0.31570898  0.17940821  0.32181874     0.03600
H495        H  0.28419235  0.23668242  0.33371892     0.08700
H496        H  0.33188411  0.16552309  0.31582337     0.07500
N497        N  0.43266097  0.51264161  0.18941105    -0.03100
C498        C  0.44474588  0.51188540  0.16417282    -0.00500
C499        C  0.46604861  0.53060321  0.16320073    -0.23400
C500        C  0.46766083  0.54276891  0.18858227    -0.23600
C501        C  0.44707134  0.53151352  0.20450633    -0.00600
H502        H  0.47960330  0.53437248  0.14606290     0.13200
H503        H  0.48269087  0.55786222  0.19493289     0.13200
N504        N  0.43688488  0.41073943  0.93941332    -0.26900
N505        N  0.46046828  0.40158447  0.92969206    -0.34700
C506        C  0.45743040  0.39514251  0.90311789     0.01500
C507        C  0.43069879  0.40018310  0.89508507     0.07500
C508        C  0.41811141  0.41002221  0.91878328    -0.05600
H509        H  0.47278372  0.38445535  0.89126308     0.08200
H510        H  0.39642283  0.41377197  0.92147233     0.09400
Cu511      Cu  0.49360233  0.38870514  0.95315213     0.44200
Cu512      Cu  0.43186082  0.41956232  0.98174128     0.42000
Cu513      Cu  0.48130056  0.38138765  0.02369922     0.43900
N514        N  0.51652035  0.36238454  0.97750628    -0.34300
N515        N  0.51064355  0.35830218  0.00360097    -0.28500
C516        C  0.52578302  0.33732245  0.01316080    -0.04600
C517        C  0.54206744  0.32778119  0.99201046     0.07600
C518        C  0.53572877  0.34423831  0.96972086     0.01400
H519        H  0.52449557  0.32918834  0.03375802     0.09000
H520        H  0.54330852  0.34215169  0.94899768     0.08100
N521        N  0.45537903  0.41121343  0.03913847    -0.35700
N522        N  0.43749878  0.42550218  0.02454309    -0.27900
C523        C  0.42642482  0.44477177  0.04109455    -0.03100
C524        C  0.43825200  0.44274557  0.06718184     0.05500
C525        C  0.45622871  0.42096119  0.06490209     0.03600
H526        H  0.41122806  0.45941293  0.03440071     0.08700
H527        H  0.47017936  0.41361270  0.08054584     0.07500
N528        N  0.33706012  0.47026557  0.23926132    -0.03100
C529        C  0.32471253  0.44548015  0.24094484    -0.00500
C530        C  0.30395589  0.44623434  0.26018760    -0.23400
C531        C  0.30352284  0.47249671  0.27053369    -0.23600
C532        C  0.32400031  0.48691124  0.25722479    -0.00600
H533        H  0.28967912  0.42993019  0.26500411     0.13200
H534        H  0.28886738  0.48059069  0.28503199     0.13200
N535        N  0.34727978  0.22779730  0.13138148    -0.26900
N536        N  0.34104533  0.22108122  0.10586201    -0.34700
C537        C  0.34344413  0.19398715  0.10262803     0.01500
C538        C  0.35123065  0.18243864  0.12725688     0.07500
C539        C  0.35335892  0.20453138  0.14525069    -0.05600
H540        H  0.33638893  0.18303510  0.08462742     0.08200
H541        H  0.35636925  0.20345545  0.16721813     0.09400
Cu542      Cu  0.32030181  0.24582306  0.07877277     0.44200
Cu543      Cu  0.34260316  0.26838588  0.14521446     0.42000
Cu544      Cu  0.30803123  0.31434042  0.09398985     0.43900
N545        N  0.29249825  0.26870792  0.05679658    -0.34300
N546        N  0.28852274  0.29500035  0.06149849    -0.28500
C547        C  0.26905135  0.30429177  0.04419084    -0.04600
C548        C  0.26008645  0.28244793  0.02836903     0.07600
C549        C  0.27528596  0.26022414  0.03697984     0.01400
H550        H  0.26127606  0.32502693  0.04388893     0.09000
H551        H  0.27399111  0.23943314  0.02939226     0.08100
N552        N  0.32474944  0.32675294  0.13115208    -0.35700
N553        N  0.33621869  0.31080770  0.14993847    -0.27900
C554        C  0.34202355  0.32622773  0.17222259    -0.03100
C555        C  0.33405725  0.35309893  0.16709990     0.05500
C556        C  0.32316353  0.35240516  0.14087857     0.03600
H557        H  0.35015569  0.31810805  0.19119974     0.08700
H558        H  0.31382139  0.36923374  0.12987050     0.07500
N559        N  0.33840785  0.62217877  0.28335424    -0.03100
C560        C  0.32634143  0.64709523  0.28316342    -0.00500
C561        C  0.30295874  0.64651142  0.26713511    -0.23400
C562        C  0.30052596  0.62015826  0.25723300    -0.23600
C563        C  0.32256020  0.60540894  0.26747850    -0.00600
H564        H  0.28854276  0.66305781  0.26406624     0.13200
H565        H  0.28362382  0.61230738  0.24510763     0.13200
N566        N  0.36858299  0.86925802  0.37835253    -0.26900
N567        N  0.36926077  0.87759097  0.40418468    -0.34700
C568        C  0.36994802  0.90508555  0.40483892     0.01500
C569        C  0.36958400  0.91493325  0.37829869     0.07500
C570        C  0.36832482  0.89160667  0.36198488    -0.05600
H571        H  0.36752006  0.91710680  0.42331489     0.08200
H572        H  0.36511032  0.89099981  0.34002632     0.09400
Cu573      Cu  0.36125044  0.85307055  0.43796398     0.44200
Cu574      Cu  0.36412339  0.82781377  0.36705367     0.42000
Cu575      Cu  0.35001446  0.78295849  0.42532714     0.43900
N576        N  0.34398941  0.82722636  0.46695409    -0.34300
N577        N  0.33993918  0.80091546  0.46218380    -0.28500
C578        C  0.32485359  0.79014893  0.48257686    -0.04600
C579        C  0.31889379  0.81080746  0.50100044     0.07600
C580        C  0.33147599  0.83402628  0.49052910     0.01400
H581        H  0.31701317  0.76939813  0.48279905     0.09000
H582        H  0.32997440  0.85469530  0.49836575     0.08100
N583        N  0.35436839  0.76932190  0.38556152    -0.35700
N584        N  0.35889624  0.78506887  0.36395640    -0.27900
C585        C  0.35809655  0.76916393  0.34127716    -0.03100
C586        C  0.35293871  0.74220424  0.34916548     0.05500
C587        C  0.35060892  0.74335491  0.37737304     0.03600
H588        H  0.35980358  0.77688648  0.32056089     0.08700
H589        H  0.34568014  0.72659162  0.39103072     0.07500
N590        N  0.42853910  0.57331171  0.33695212    -0.03100
C591        C  0.43722708  0.57085137  0.36353679    -0.00500
C592        C  0.45348995  0.54788366  0.36628353    -0.23400
C593        C  0.45564786  0.53631305  0.34071222    -0.23600
C594        C  0.44086624  0.55256771  0.32273958    -0.00600
H595        H  0.46371623  0.54093093  0.38474057     0.13200
H596        H  0.46764537  0.51842099  0.33558952     0.13200
N597        N  0.43641517  0.68576497  0.58386765    -0.26900
N598        N  0.45887655  0.69776771  0.59339935    -0.34700
C599        C  0.45450994  0.70661406  0.61902128     0.01500
C600        C  0.42804676  0.70014693  0.62665745     0.07500
C601        C  0.41698188  0.68691201  0.60374646    -0.05600
H602        H  0.46876715  0.71938096  0.63034169     0.08200
H603        H  0.39581185  0.68080096  0.60092211     0.09400
Cu604      Cu  0.49216426  0.70998737  0.57025684     0.44200
Cu605      Cu  0.43391029  0.67233439  0.54244630     0.42000
Cu606      Cu  0.48717707  0.70515971  0.49904318     0.43900
N607        N  0.51606919  0.73388890  0.54472015    -0.34300
N608        N  0.51325239  0.73333533  0.51780285    -0.28500
C609        C  0.52819425  0.75387190  0.50685428    -0.04600
C610        C  0.54106850  0.76790300  0.52805148     0.07600
C611        C  0.53295103  0.75456346  0.55173827     0.01400
H612        H  0.52895735  0.75872244  0.48521934     0.09000
H613        H  0.53763498  0.76043132  0.57263478     0.08100
N614        N  0.46079939  0.67419727  0.48583573    -0.35700
N615        N  0.44133287  0.66240438  0.50063785    -0.27900
C616        C  0.42887539  0.64317366  0.48487095    -0.03100
C617        C  0.44137704  0.64251302  0.45908392     0.05500
C618        C  0.46136838  0.66271140  0.46079252     0.03600
H619        H  0.41177490  0.63087832  0.49173360     0.08700
H620        H  0.47589358  0.66836545  0.44503622     0.07500
N621        N  0.46587570  0.86620692  0.10047117    -0.03100
C622        C  0.46048556  0.88959743  0.08626165    -0.00500
C623        C  0.47184603  0.88809183  0.06036826    -0.23400
C624        C  0.48441443  0.86295386  0.05848449    -0.23600
C625        C  0.48042077  0.84991056  0.08330293    -0.00600
H626        H  0.47099396  0.90359355  0.04452238     0.13200
H627        H  0.49564055  0.85516222  0.04104879     0.13200
N628        N  0.35168496  0.10835127  0.12853573    -0.26900
N629        N  0.32564228  0.11397211  0.12328289    -0.34700
C630        C  0.32135814  0.14085088  0.12660029     0.01500
C631        C  0.34574122  0.15343107  0.13378002     0.07500
C632        C  0.36467107  0.13212797  0.13473044    -0.05600
H633        H  0.30278323  0.15114316  0.12014632     0.08200
H634        H  0.38669239  0.13420935  0.13669878     0.09400
Cu635      Cu  0.29854563  0.08911880  0.10195065     0.44200
Cu636      Cu  0.36854850  0.06900352  0.12229434     0.42000
Cu637      Cu  0.32014932  0.02367320  0.08600705     0.43900
N638        N  0.27818052  0.06543364  0.07309088    -0.34300
N639        N  0.28585868  0.04009970  0.06787533    -0.28500
C640        C  0.27126440  0.03026563  0.04658975    -0.04600
C641        C  0.25386809  0.05070299  0.03764527     0.07600
C642        C  0.25877132  0.07276125  0.05487182     0.01400
H643        H  0.27473771  0.01063546  0.03692607     0.09000
H644        H  0.24995595  0.09302551  0.05338335     0.08100
N645        N  0.35826253  0.01193428  0.09973292    -0.35700
N646        N  0.37639938  0.02754491  0.11261911    -0.27900
C647        C  0.39915992  0.01237492  0.11723418    -0.03100
C648        C  0.39501714  0.98620014  0.10640675     0.05500
C649        C  0.36879821  0.98697176  0.09568040     0.03600
H650        H  0.41717832  0.01981817  0.12788164     0.08700
H651        H  0.35819899  0.97064044  0.08498501     0.07500
N652        N  0.44256079  0.83978143  0.21163209    -0.03100
C653        C  0.41812463  0.84302214  0.22459816    -0.00500
C654        C  0.42011824  0.83316373  0.25113944    -0.23400
C655        C  0.44633074  0.82299931  0.25423226    -0.23600
C656        C  0.45983427  0.82735024  0.22969518    -0.00600
H657        H  0.40423485  0.83320746  0.26658928     0.13200
H658        H  0.45445733  0.81284455  0.27222876     0.13200
N659        N  0.19705028  0.94238976  0.16275775    -0.26900
N660        N  0.19251448  0.96902498  0.16474394    -0.34700
C661        C  0.16632492  0.97445777  0.15836743     0.01500
C662        C  0.15259162  0.95034086  0.15263156     0.07500
C663        C  0.17285779  0.93024444  0.15584901    -0.05600
H664        H  0.15677370  0.99408771  0.16213070     0.08200
H665        H  0.16950416  0.90833155  0.15600636     0.09400
Cu666      Cu  0.21616956  0.99628621  0.18699571     0.44200
Cu667      Cu  0.23609188  0.92514774  0.17355323     0.42000
Cu668      Cu  0.27899350  0.97568832  0.21105420     0.43900
N669        N  0.23588538  0.01736814  0.21812522    -0.34300
N670        N  0.26050004  0.01005768  0.22657855    -0.28500
C671        C  0.26819770  0.02608916  0.24766954    -0.04600
C672        C  0.24698167  0.04399701  0.25307268     0.07600
C673        C  0.22675444  0.03789289  0.23403309     0.01400
H674        H  0.28716168  0.02394536  0.25905639     0.09000
H675        H  0.20680579  0.04737939  0.23211442     0.08100
N676        N  0.29257308  0.93811857  0.19795907    -0.35700
N677        N  0.27808890  0.91888554  0.18529090    -0.27900
C678        C  0.29473096  0.89684447  0.18195289    -0.03100
C679        C  0.32072750  0.90306898  0.19257353     0.05500
C680        C  0.31808386  0.92920359  0.20278869     0.03600
H681        H  0.28847209  0.87773013  0.17258597     0.08700
H682        H  0.33341826  0.94076830  0.21397938     0.07500
N683        N  0.54706770  0.72898508  0.10184717    -0.03100
C684        C  0.55271690  0.70483568  0.08917442    -0.00500
C685        C  0.54052802  0.70433640  0.06352906    -0.23400
C686        C  0.52702674  0.72888499  0.06033742    -0.23600
C687        C  0.53113112  0.74363533  0.08421538    -0.00600
H688        H  0.54103369  0.68769135  0.04888496     0.13200
H689        H  0.51494353  0.73505914  0.04274296     0.13200
N690        N  0.64932392  0.48068082  0.12792953    -0.26900
N691        N  0.67362557  0.47311612  0.11866167    -0.34700
C692        C  0.67620682  0.44589356  0.12085410     0.01500
C693        C  0.65241309  0.43512945  0.13169023     0.07500
C694        C  0.63561565  0.45782897  0.13576879    -0.05600
H695        H  0.69266492  0.43434186  0.11156401     0.08200
H696        H  0.61413589  0.45742299  0.14127336     0.09400
Cu697      Cu  0.69894074  0.49664457  0.09442709     0.44200
Cu698      Cu  0.63537323  0.52161106  0.12468767     0.42000
Cu699      Cu  0.68133821  0.56412636  0.08127039     0.43900
N700        N  0.71835743  0.51912962  0.06440804    -0.34300
N701        N  0.71259374  0.54514605  0.06005552    -0.28500
C702        C  0.72800020  0.55447366  0.03915513    -0.04600
C703        C  0.74375291  0.53294887  0.02967574     0.07600
C704        C  0.73701956  0.51082156  0.04600745     0.01400
H705        H  0.72685116  0.57492534  0.03068469     0.09000
H706        H  0.74492248  0.49018772  0.04451077     0.08100
N707        N  0.64685750  0.57835124  0.10125523    -0.35700
N708        N  0.62971043  0.56385305  0.11651950    -0.27900
C709        C  0.60895584  0.58050030  0.12431393    -0.03100
C710        C  0.61335654  0.60650435  0.11322679     0.05500
C711        C  0.63765728  0.60409034  0.09899020     0.03600
H712        H  0.59192522  0.57406026  0.13693814     0.08700
H713        H  0.64749683  0.61976663  0.08676122     0.07500
N714        N  0.58312024  0.76467416  0.20693130    -0.03100
C715        C  0.60895430  0.76307791  0.21743638    -0.00500
C716        C  0.60971302  0.77539796  0.24298083    -0.23400
C717        C  0.58379742  0.78540574  0.24794255    -0.23600
C718        C  0.56774545  0.77853164  0.22554594    -0.00600
H719        H  0.62725199  0.77705267  0.25654771     0.13200
H720        H  0.57751120  0.79714436  0.26565681     0.13200
N721        N  0.83280837  0.66526255  0.19349149    -0.26900
N722        N  0.84275088  0.65514160  0.21667841    -0.34700
C723        C  0.86856265  0.64667159  0.21269251     0.01500
C724        C  0.87585259  0.65117285  0.18571896     0.07500
C725        C  0.85252766  0.66297881  0.17398758    -0.05600
H726        H  0.88018423  0.63509314  0.22765393     0.08200
H727        H  0.84928524  0.66714055  0.15242763     0.09400
Cu728      Cu  0.82027423  0.64407052  0.25103350     0.44200
Cu729      Cu  0.79111730  0.67771611  0.18986271     0.42000
Cu730      Cu  0.74960180  0.64207051  0.24109226     0.43900
N731        N  0.79475765  0.62223706  0.27714486    -0.34300
N732        N  0.76813914  0.62063060  0.27244712    -0.28500
C733        C  0.75687595  0.60251395  0.28985912    -0.04600
C734        C  0.77747733  0.59212267  0.30638352     0.07600
C735        C  0.80127480  0.60513794  0.29783431     0.01400
H736        H  0.73548238  0.59655302  0.28971453     0.09000
H737        H  0.82196240  0.60112877  0.30483575     0.08100
N738        N  0.73398187  0.66988925  0.21340164    -0.35700
N739        N  0.74838692  0.68446607  0.19561934    -0.27900
C740        C  0.73137565  0.70335909  0.18433844    -0.03100
C741        C  0.70510508  0.69976369  0.19515802     0.05500
C742        C  0.70791302  0.67854382  0.21359188     0.03600
H743        H  0.73773854  0.71902637  0.16999580     0.08700
H744        H  0.69246343  0.67112892  0.22766854     0.07500
N745        N  0.30936434  0.72611437  0.94636241    -0.03100
C746        C  0.31450117  0.73899332  0.92212157    -0.00500
C747        C  0.30608451  0.76596566  0.92354390    -0.23400
C748        C  0.29498481  0.76970447  0.94919824    -0.23600
C749        C  0.29704626  0.74497206  0.96283811    -0.00600
H750        H  0.30761618  0.78122477  0.90751553     0.13200
H751        H  0.28549715  0.78822658  0.95676681     0.13200
N752        N  0.40146350  0.72087618  0.69365158    -0.26900
N753        N  0.41079222  0.74422525  0.68340588    -0.34700
C754        C  0.41834781  0.74042666  0.65727457     0.01500
C755        C  0.41393403  0.71342739  0.65006792     0.07500
C756        C  0.40320968  0.70148544  0.67375847    -0.05600
H757        H  0.42927353  0.75556755  0.64528543     0.08200
H758        H  0.39958937  0.67986811  0.67707616     0.09400
Cu759      Cu  0.42190796  0.77868401  0.70563879     0.44200
Cu760      Cu  0.39147389  0.71670360  0.73596110     0.42000
Cu761      Cu  0.42932571  0.76726505  0.77614986     0.43900
N762        N  0.44340107  0.80560291  0.73060037    -0.34300
N763        N  0.44688026  0.80063887  0.75698002    -0.28500
C764        C  0.46397263  0.81947534  0.76766255    -0.04600
C765        C  0.47183390  0.83710721  0.74689716     0.07600
C766        C  0.45834908  0.82775266  0.72363629     0.01400
H767        H  0.47107586  0.81954840  0.78870609     0.09000
H768        H  0.46052698  0.83541339  0.70293370     0.08100
N769        N  0.40372706  0.73824027  0.79324489    -0.35700
N770        N  0.38802789  0.72096670  0.77931086    -0.27900
C771        C  0.37021135  0.70931582  0.79719763    -0.03100
C772        C  0.37561947  0.71932092  0.82353499     0.05500
C773        C  0.39689601  0.73764781  0.81988101     0.03600
H774        H  0.35380374  0.69550552  0.79138565     0.08700
H775        H  0.40520761  0.75147877  0.83514810     0.07500
N776        N  0.32306036  0.61281027  0.96893270    -0.03100
C777        C  0.34547430  0.59883278  0.96020287    -0.00500
C778        C  0.34437244  0.57217061  0.96934215    -0.23400
C779        C  0.32085534  0.56986878  0.98473606    -0.23600
C780        C  0.30810627  0.59531907  0.98493021    -0.00600
H781        H  0.35965696  0.55644743  0.96623205     0.13200
H782        H  0.31462993  0.55183954  0.99606586     0.13200
N783        N  0.56708230  0.64119362  0.85544414    -0.26900
N784        N  0.57099399  0.63556345  0.82920166    -0.34700
C785        C  0.59725847  0.64016613  0.82271250     0.01500
C786        C  0.61159643  0.64830885  0.84582636     0.07500
C787        C  0.59164376  0.64876339  0.86637572    -0.05600
H788        H  0.60627571  0.63365958  0.80353526     0.08200
H789        H  0.59535237  0.65131462  0.88811388     0.09400
Cu790      Cu  0.54645014  0.61048341  0.80523146     0.44200
Cu791      Cu  0.52858172  0.63358339  0.87462293     0.42000
Cu792      Cu  0.48875501  0.58250232  0.83461145     0.43900
N793        N  0.52792283  0.57588965  0.78888940    -0.34300
N794        N  0.50540947  0.56554217  0.79969792    -0.28500
C795        C  0.49880746  0.54217248  0.78656013    -0.04600
C796        C  0.51868591  0.53728143  0.76698999     0.07600
C797        C  0.53686535  0.55901849  0.76904948     0.01400
H798        H  0.48191415  0.52886099  0.79205499     0.09000
H799        H  0.55563958  0.56189219  0.75761402     0.08100
N800        N  0.47443007  0.60281199  0.86880341    -0.35700
N801        N  0.48748248  0.62158737  0.88353274    -0.27900
C802        C  0.46985612  0.63086508  0.90294200    -0.03100
C803        C  0.44465181  0.61751680  0.89968053     0.05500
C804        C  0.44888288  0.59958650  0.87827242     0.03600
H805        H  0.47475226  0.64651377  0.91789444     0.08700
H806        H  0.43429688  0.58505289  0.86993045     0.07500
N807        N  0.21697979  0.73220741  0.07815022    -0.03100
C808        C  0.20778551  0.74766553  0.09945871    -0.00500
C809        C  0.21669898  0.77436957  0.09643007    -0.23400
C810        C  0.23188139  0.77530812  0.07271069    -0.23600
C811        C  0.23208564  0.74911332  0.06173004    -0.00600
H812        H  0.21326445  0.79121871  0.11041134     0.13200
H813        H  0.24249024  0.79311695  0.06478254     0.13200
N814        N  0.11825126  0.69090765  0.32413603    -0.26900
N815        N  0.09241496  0.68651585  0.33126802    -0.34700
C816        C  0.09082443  0.68349373  0.35860079     0.01500
C817        C  0.11668519  0.68638915  0.36975313     0.07500
C818        C  0.13360218  0.69146854  0.34732032    -0.05600
H819        H  0.07174265  0.68278765  0.36986636     0.08200
H820        H  0.15506417  0.69713660  0.34804042     0.09400
Cu821      Cu  0.05876372  0.69443598  0.30668555     0.44200
Cu822      Cu  0.13024059  0.69907145  0.28305097     0.42000
Cu823      Cu  0.07139604  0.71468417  0.23907246     0.43900
N824        N  0.03033800  0.71649463  0.28423488    -0.34300
N825        N  0.03506276  0.72419429  0.25874206    -0.28500
C826        C  0.01541122  0.74185793  0.25081356    -0.04600
C827        C  0.99762212  0.74567088  0.27256713     0.07600
C828        C  0.00768238  0.72918291  0.29339284     0.01400
H829        H  0.01530449  0.75269028  0.23145547     0.09000
H830        H  0.00023184  0.72795424  0.31423457     0.08100
N831        N  0.11114866  0.71067392  0.22475671    -0.35700
N832        N  0.13308980  0.70610967  0.24013381    -0.27900
C833        C  0.15554725  0.70814197  0.22391514    -0.03100
C834        C  0.14718381  0.71415126  0.19712839     0.05500
C835        C  0.11888543  0.71550744  0.19880978     0.03600
H836        H  0.17640953  0.70684787  0.23139133     0.08700
H837        H  0.10481794  0.72080912  0.18245129     0.07500
N838        N  0.19832502  0.61710386  0.06975379    -0.03100
C839        C  0.17484938  0.60329813  0.07644642    -0.00500
C840        C  0.17784161  0.57571994  0.07095428    -0.23400
C841        C  0.20365131  0.57229681  0.06029412    -0.23600
C842        C  0.21581085  0.59788493  0.05946450    -0.00600
H843        H  0.16256962  0.55985085  0.07381312     0.13200
H844        H  0.21205783  0.55337574  0.05242997     0.13200
N845        N  0.94179671  0.62675084  0.15924750    -0.26900
N846        N  0.93126070  0.60463561  0.17095294    -0.34700
C847        C  0.90546243  0.60970756  0.17880970     0.01500
C848        C  0.89875108  0.63635155  0.17225892     0.07500
C849        C  0.92241368  0.64672104  0.15984019    -0.05600
H850        H  0.89348439  0.59591500  0.19140415     0.08200
H851        H  0.92610012  0.66782292  0.15413303     0.09400
Cu852      Cu  0.95292653  0.57123612  0.18546499     0.44200
Cu853      Cu  0.98387781  0.62842935  0.14735394     0.42000
Cu854      Cu  0.02383966  0.57970942  0.18829355     0.43900
N855        N  0.97712651  0.54761985  0.21113525    -0.34300
N856        N  0.00381732  0.55176382  0.21302000    -0.28500
C857        C  0.01406194  0.53610053  0.23326817    -0.04600
C858        C  0.99269339  0.52134360  0.24470601     0.07600
C859        C  0.96952850  0.52913284  0.23015777     0.01400
H860        H  0.03534036  0.53604122  0.23964572     0.09000
H861        H  0.94856783  0.52293446  0.23402140     0.08100
N862        N  0.04054370  0.60444832  0.15823718    -0.35700
N863        N  0.02673819  0.62135114  0.14206823    -0.27900
C864        C  0.04446230  0.63137172  0.12310539    -0.03100
C865        C  0.07046917  0.62038393  0.12802957     0.05500
C866        C  0.06692285  0.60359113  0.15047796     0.03600
H867        H  0.03884148  0.64529050  0.10677569     0.08700
H868        H  0.08226993  0.59054803  0.15978170     0.07500
N869        N  0.93284693  0.08759775  0.82632427    -0.03100
C870        C  0.94712180  0.10112195  0.84610767    -0.00500
C871        C  0.97483581  0.09658277  0.84287842    -0.23400
C872        C  0.97760322  0.07953872  0.82055901    -0.23600
C873        C  0.95143856  0.07359186  0.81091339    -0.00600
H874        H  0.99127971  0.10479436  0.85539993     0.13200
H875        H  0.99683336  0.07243203  0.81218383     0.13200
N876        N  0.92296221  0.19904025  0.07287179    -0.26900
N877        N  0.94640418  0.20685346  0.08434623    -0.34700
C878        C  0.94171305  0.21591313  0.10983946     0.01500
C879        C  0.91407925  0.21400049  0.11545634     0.07500
C880        C  0.90262077  0.20331330  0.09140349    -0.05600
H881        H  0.95711183  0.22568774  0.12256846     0.08200
H882        H  0.88098281  0.20091155  0.08699514     0.09400
Cu883      Cu  0.98367448  0.21311357  0.06502100     0.44200
Cu884      Cu  0.92060509  0.18617384  0.03098990     0.42000
Cu885      Cu  0.98101752  0.21225380  0.99476028     0.43900
N886        N  0.01433696  0.23138283  0.04204276    -0.34300
N887        N  0.01252607  0.23192293  0.01507927    -0.28500
C888        C  0.03224402  0.24832081  0.00500103    -0.04600
C889        C  0.04723135  0.25875810  0.02679805     0.07600
C890        C  0.03536941  0.24748565  0.05004306     0.01400
H891        H  0.03453540  0.25338317  0.98352718     0.09000
H892        H  0.04032805  0.25220259  0.07116694     0.08100
N893        N  0.95130525  0.18794100  0.97692019    -0.35700
N894        N  0.92937220  0.17745975  0.98895442    -0.27900
C895        C  0.91633425  0.16123957  0.97031760    -0.03100
C896        C  0.93099601  0.16172598  0.94559869     0.05500
C897        C  0.95283946  0.17898947  0.95104159     0.03600
H898        H  0.89763225  0.15006852  0.97446872     0.08700
H899        H  0.96951196  0.18403235  0.93732320     0.07500
N900        N  0.81892558  0.10222829  0.80834987    -0.03100
C901        C  0.80442179  0.12550052  0.81287098    -0.00500
C902        C  0.77756992  0.12179707  0.80436058    -0.23400
C903        C  0.77575611  0.09562758  0.79376851    -0.23600
C904        C  0.80154185  0.08414883  0.79610885    -0.00600
H905        H  0.76110526  0.13656258  0.80563563     0.13200
H906        H  0.75773472  0.08621540  0.78476467     0.13200
N907        N  0.83346719  0.35613551  0.89975054    -0.26900
N908        N  0.82398156  0.36307859  0.92416364    -0.34700
C909        C  0.82843072  0.38972251  0.92865362     0.01500
C910        C  0.84069173  0.40125174  0.90594299     0.07500
C911        C  0.84357394  0.37923288  0.88774904    -0.05600
H912        H  0.82012991  0.40071287  0.94601483     0.08200
H913        H  0.85033250  0.38041555  0.86667026     0.09400
Cu914      Cu  0.79744913  0.34063049  0.94816944     0.44200
Cu915      Cu  0.82916392  0.31493595  0.88533993     0.42000
Cu916      Cu  0.78791079  0.27289664  0.93502718     0.43900
N917        N  0.76754016  0.31882021  0.96858517    -0.34300
N918        N  0.76454257  0.29232454  0.96443813    -0.28500
C919        C  0.74396146  0.28290362  0.98022711    -0.04600
C920        C  0.73323687  0.30483999  0.99463000     0.07600
C921        C  0.74865501  0.32732386  0.98669769     0.01400
H922        H  0.73688370  0.26188533  0.98063497     0.09000
H923        H  0.74645619  0.34823583  0.99367976     0.08100
N924        N  0.80889615  0.25753584  0.90159861    -0.35700
N925        N  0.82269863  0.27157527  0.88285528    -0.27900
C926        C  0.83110318  0.25357799  0.86340514    -0.03100
C927        C  0.82265085  0.22717002  0.87073128     0.05500
C928        C  0.80841142  0.23090446  0.89483535     0.03600
H929        H  0.84225422  0.25924758  0.84510738     0.08700
H930        H  0.79711367  0.21549404  0.90608863     0.07500
N931        N  0.82278129  0.96443052  0.72729835    -0.03100
C932        C  0.80936365  0.94159623  0.71849870    -0.00500
C933        C  0.78307086  0.94119751  0.72888114    -0.23400
C934        C  0.78045683  0.96420187  0.74498102    -0.23600
C935        C  0.80530122  0.97806715  0.74416038    -0.00600
H936        H  0.76739342  0.92594448  0.72495902     0.13200
H937        H  0.76216188  0.97032692  0.75586430     0.13200
N938        N  0.85977376  0.72477038  0.61626363    -0.26900
N939        N  0.85610997  0.71739443  0.59042211    -0.34700
C940        C  0.86065509  0.69048284  0.58775364     0.01500
C941        C  0.86736335  0.67963700  0.61303167     0.07500
C942        C  0.86631464  0.70201366  0.63084811    -0.05600
H943        H  0.85621756  0.67898466  0.56927855     0.08200
H944        H  0.86788345  0.70133462  0.65297493     0.09400
Cu945      Cu  0.83807739  0.74129660  0.56060869     0.44200
Cu946      Cu  0.85241357  0.76573078  0.62888204     0.42000
Cu947      Cu  0.83508379  0.81158556  0.56948005     0.43900
N948        N  0.81645381  0.76590433  0.53391934    -0.34300
N949        N  0.81654539  0.79283060  0.53605632    -0.28500
C950        C  0.79946702  0.80335209  0.51699373    -0.04600
C951        C  0.78779925  0.78176760  0.50261661     0.07600
C952        C  0.79894558  0.75836345  0.51396879     0.01400
H953        H  0.79428354  0.82481529  0.51520997     0.09000
H954        H  0.79399410  0.73737659  0.50876385     0.08100
N955        N  0.84169967  0.82450522  0.60949517    -0.35700
N956        N  0.84556465  0.80865635  0.63123447    -0.27900
C957        C  0.84352342  0.82451850  0.65390917    -0.03100
C958        C  0.83784091  0.85140400  0.64601312     0.05500
C959        C  0.83768041  0.85043556  0.61766968     0.03600
H960        H  0.84494671  0.81686466  0.67468691     0.08700
H961        H  0.83412848  0.86721879  0.60367705     0.07500
N962        N  0.92977533  0.99713835  0.69463736    -0.03100
C963        C  0.94125148  0.99352441  0.66950929    -0.00500
C964        C  0.96729007  0.00485800  0.66914542    -0.23400
C965        C  0.97166224  0.01643030  0.69454409    -0.23600
C966        C  0.94820837  0.01182153  0.70970889    -0.00600
H967        H  0.98152187  0.00487542  0.65215629     0.13200
H968        H  0.98967381  0.02776600  0.70097867     0.13200
N969        N  0.91851550  0.90272800  0.44504321    -0.26900
N970        N  0.94268051  0.89475936  0.43570988    -0.34700
C971        C  0.94032747  0.88747335  0.40935016     0.01500
C972        C  0.91346210  0.89065873  0.40106678     0.07500
C973        C  0.90000425  0.90038775  0.42430183    -0.05600
H974        H  0.95648670  0.87762110  0.39784459     0.08200
H975        H  0.87810731  0.90301967  0.42664934     0.09400
Cu976      Cu  0.97658077  0.88473457  0.45909403     0.44200
Cu977      Cu  0.91273291  0.91196956  0.48708975     0.42000
Cu978      Cu  0.96351266  0.87398120  0.52810085     0.43900
N979        N  0.00279613  0.86180830  0.48321573    -0.34300
N980        N  0.99719810  0.85679448  0.50917774    -0.28500
C981        C  0.01553754  0.83879934  0.51912836    -0.04600
C982        C  0.03345398  0.83199655  0.49823180     0.07600
C983        C  0.02478555  0.84702053  0.47573722     0.01400
H984        H  0.01508499  0.83040746  0.53965854     0.09000
H985        H  0.03278604  0.84603922  0.45509171     0.08100
N986        N  0.93463556  0.90022743  0.54433509    -0.35700
N987        N  0.91741086  0.91572429  0.53017474    -0.27900
C988        C  0.90627849  0.93417544  0.54763375    -0.03100
C989        C  0.91657942  0.92943549  0.57394146     0.05500
C990        C  0.93450702  0.90787894  0.57074081     0.03600
H991        H  0.89280583  0.95065581  0.54147062     0.08700
H992        H  0.94852742  0.90000862  0.58606623     0.07500
N993        N  0.83304417  0.15012430  0.46918267    -0.03100
C994        C  0.85944805  0.14208758  0.46526692    -0.00500
C995        C  0.86456780  0.11818290  0.47963320    -0.23400
C996        C  0.84081767  0.11152634  0.49318961    -0.23600
C997        C  0.82184706  0.13136904  0.48644055    -0.00600
H998        H  0.88342505  0.10653346  0.47982216     0.13200
H999        H  0.83763783  0.09402982  0.50644783     0.13200
N1000       N  0.07101201  0.17718635  0.35162191    -0.26900
N1001       N  0.07744781  0.16704919  0.32735134    -0.34700
C1002       C  0.10451691  0.16906835  0.32344146     0.01500
C1003       C  0.11656266  0.18042354  0.34641531     0.07500
C1004       C  0.09461063  0.18524448  0.36411650    -0.05600
H1005       H  0.11519469  0.15905218  0.30680999     0.08200
H1006       H  0.09603610  0.19142101  0.38538304     0.09400
Cu1007     Cu  0.05339048  0.14070080  0.30472063     0.44200
Cu1008     Cu  0.03015063  0.17489422  0.36627135     0.42000
Cu1009     Cu  0.98714498  0.12676995  0.32430154     0.43900
N1010       N  0.03242247  0.10739319  0.28921733    -0.34300
N1011       N  0.00673700  0.10238306  0.29595102    -0.28500
C1012       C  0.99824644  0.07941093  0.28318094    -0.04600
C1013       C  0.01999956  0.06932686  0.26807895     0.07600
C1014       C  0.04137673  0.08750161  0.27248226     0.01400
H1015       H  0.97807983  0.07036521  0.28532081     0.09000
H1016       H  0.06185769  0.08644641  0.26406600     0.08100
N1017       N  0.97286995  0.15102105  0.35584459    -0.35700
N1018       N  0.98748872  0.16786249  0.37143793    -0.27900
C1019       C  0.97087143  0.17753845  0.39134761    -0.03100
C1020       C  0.94468178  0.16639078  0.38791445     0.05500
C1021       C  0.94711552  0.14954004  0.36532768     0.03600
H1022       H  0.97765446  0.19066549  0.40792119     0.08700
H1023       H  0.93195096  0.13528739  0.35758416     0.07500
N1024       N  0.78049843  0.24608926  0.42788238    -0.03100
C1025       C  0.78296808  0.25627641  0.40199550    -0.00500
C1026       C  0.76667306  0.27924622  0.39907097    -0.23400
C1027       C  0.75337806  0.28301398  0.42360336    -0.23600
C1028       C  0.76217283  0.26252213  0.44107671    -0.00600
H1029       H  0.76468131  0.29196213  0.38099463     0.13200
H1030       H  0.73858076  0.29885319  0.42814965     0.13200
N1031       N  0.88889457  0.23756523  0.18201342    -0.26900
N1032       N  0.90154395  0.25948959  0.17222856    -0.34700
C1033       C  0.90890612  0.25501777  0.14614728     0.01500
C1034       C  0.90089553  0.22897990  0.13842510     0.07500
C1035       C  0.88827933  0.21835107  0.16185335    -0.05600
H1036       H  0.92221750  0.26854935  0.13465106     0.08200
H1037       H  0.88174313  0.19737242  0.16484187     0.09400
Cu1038     Cu  0.91730720  0.29139196  0.19535203     0.44200
Cu1039     Cu  0.87767668  0.23486759  0.22419673     0.42000
Cu1040     Cu  0.91844356  0.28295840  0.26639939     0.43900
N1041       N  0.94281731  0.31452474  0.22023000    -0.34300
N1042       N  0.94419013  0.31046478  0.24694797    -0.28500
C1043       C  0.96450693  0.32597096  0.25747419    -0.04600
C1044       C  0.97643236  0.34053661  0.23622983     0.07600
C1045       C  0.96214761  0.33279886  0.21290454     0.01400
H1046       H  0.97055407  0.32610136  0.27884413     0.09000
H1047       H  0.96637407  0.33889578  0.19200427     0.08100
N1048       N  0.88759895  0.25810292  0.28163117    -0.35700
N1049       N  0.87213901  0.24102704  0.26716608    -0.27900
C1050       C  0.85268691  0.23071654  0.28412318    -0.03100
C1051       C  0.85642441  0.24156921  0.31043689     0.05500
C1052       C  0.87857655  0.25907107  0.30760368     0.03600
H1053       H  0.83643181  0.21702527  0.27763560     0.08700
H1054       H  0.88652281  0.27312634  0.32282504     0.07500
N1055       N  0.70056947  0.12852655  0.55083142    -0.03100
C1056       C  0.67824135  0.11386364  0.55837302    -0.00500
C1057       C  0.68032702  0.08734490  0.54871429    -0.23400
C1058       C  0.70483055  0.08587067  0.53461555    -0.23600
C1059       C  0.71664047  0.11167241  0.53587047    -0.00600
H1060       H  0.66542072  0.07106563  0.55111874     0.13200
H1061       H  0.71280733  0.06810504  0.52407561     0.13200
N1062       N  0.45455536  0.16076941  0.65321647    -0.26900
N1063       N  0.44687938  0.15350268  0.67820927    -0.34700
C1064       C  0.41979107  0.15727470  0.68088483     0.01500
C1065       C  0.40923191  0.16689578  0.65644970     0.07500
C1066       C  0.43189922  0.16861421  0.63919577    -0.05600
H1067       H  0.40795177  0.14950120  0.69795386     0.08200
H1068       H  0.43147628  0.17253897  0.61735905     0.09400
Cu1069     Cu  0.46898393  0.12879106  0.70457304     0.44200
Cu1070     Cu  0.49507213  0.15572033  0.63859013     0.42000
Cu1071     Cu  0.53632024  0.11578336  0.68648718     0.43900
N1072       N  0.49074985  0.09688978  0.72197273    -0.34300
N1073       N  0.51677144  0.09294844  0.71587767    -0.28500
C1074       C  0.52581873  0.07031212  0.72860764    -0.04600
C1075       C  0.50418610  0.05913847  0.74297185     0.07600
C1076       C  0.48215837  0.07638748  0.73832239     0.01400
H1077       H  0.54616297  0.06181383  0.72633326     0.09000
H1078       H  0.46144784  0.07402516  0.74589882     0.08100
N1079       N  0.55155107  0.13346052  0.65148916    -0.35700
N1080       N  0.53729619  0.14747876  0.63316562    -0.27900
C1081       C  0.55415845  0.15356699  0.61198713    -0.03100
C1082       C  0.58003648  0.14249780  0.61736847     0.05500
C1083       C  0.57729740  0.13016300  0.64268474     0.03600
H1084       H  0.54791059  0.16498252  0.59404489     0.08700
H1085       H  0.59264543  0.11830257  0.65346776     0.07500
N1086       N  0.70299968  0.24344020  0.56536317    -0.03100
C1087       C  0.69368348  0.25569707  0.58856557    -0.00500
C1088       C  0.69462216  0.28384636  0.58543735    -0.23400
C1089       C  0.70437694  0.28894221  0.55935045    -0.23600
C1090       C  0.70907054  0.26375946  0.54732163    -0.00600
H1091       H  0.68883999  0.29903480  0.60049649     0.13200
H1092       H  0.70813887  0.30884909  0.55033396     0.13200
N1093       N  0.62620694  0.19140344  0.81868260    -0.26900
N1094       N  0.60065645  0.19028130  0.82776615    -0.34700
C1095       C  0.60081848  0.18701267  0.85509933     0.01500
C1096       C  0.62760989  0.18617901  0.86423159     0.07500
C1097       C  0.64324841  0.18943077  0.84057658    -0.05600
H1098       H  0.58273593  0.18855263  0.86782211     0.08200
H1099       H  0.66523226  0.19237920  0.83966005     0.09400
Cu1100     Cu  0.56616861  0.20143153  0.80563888     0.44200
Cu1101     Cu  0.63589710  0.19890069  0.77696594     0.42000
Cu1102     Cu  0.57505616  0.21713226  0.73641868     0.43900
N1103       N  0.53646090  0.22193975  0.78330897    -0.34300
N1104       N  0.53975976  0.22766718  0.75708788    -0.28500
C1105       C  0.51928498  0.24409699  0.74867882    -0.04600
C1106       C  0.50237846  0.24913981  0.77084392     0.07600
C1107       C  0.51384557  0.23469421  0.79246483     0.01400
H1108       H  0.51795155  0.25323427  0.72850419     0.09000
H1109       H  0.50727172  0.23483553  0.81363511     0.08100
N1110       N  0.61376925  0.21224952  0.72013163    -0.35700
N1111       N  0.63633973  0.20654397  0.73414246    -0.27900
C1112       C  0.65784753  0.20783869  0.71666088    -0.03100
C1113       C  0.64819611  0.21493794  0.69059860     0.05500
C1114       C  0.62015532  0.21721331  0.69386281     0.03600
H1115       H  0.67890918  0.20420115  0.72260452     0.08700
H1116       H  0.60544720  0.22352755  0.67845474     0.07500
N1117       N  0.68754774  0.97151168  0.28008824    -0.03100
C1118       C  0.69625115  0.94551583  0.27525429    -0.00500
C1119       C  0.71693375  0.94588339  0.25596683    -0.23400
C1120       C  0.72076681  0.97281149  0.24849596    -0.23600
C1121       C  0.70308200  0.98858595  0.26410928    -0.00600
H1122       H  0.72871923  0.92861525  0.24870095     0.13200
H1123       H  0.73511754  0.97992762  0.23319978     0.13200
N1124       N  0.66447238  0.72900823  0.39245834    -0.26900
N1125       N  0.67014943  0.72625016  0.41884635    -0.34700
C1126       C  0.66552498  0.70034820  0.42657293     0.01500
C1127       C  0.65712046  0.68515784  0.40415247     0.07500
C1128       C  0.65667092  0.70412584  0.38267989    -0.05600
H1129       H  0.67205555  0.69214093  0.44615273     0.08200
H1130       H  0.65400780  0.69949419  0.36113680     0.09400
Cu1131     Cu  0.69491404  0.75224788  0.44140067     0.44200
Cu1132     Cu  0.67271135  0.76641219  0.37181985     0.42000
Cu1133     Cu  0.72426912  0.80863240  0.40995702     0.43900
N1134       N  0.72890054  0.77169406  0.45787439    -0.34300
N1135       N  0.73995517  0.79349930  0.44633337    -0.28500
C1136       C  0.76219360  0.80123275  0.46092093    -0.04600
C1137       C  0.76549597  0.78285739  0.48229889     0.07600
C1138       C  0.74413487  0.76434638  0.47965959     0.01400
H1139       H  0.77557495  0.81814285  0.45567299     0.09000
H1140       H  0.74014021  0.74666061  0.49242842     0.08100
N1141       N  0.70297596  0.82119964  0.37544029    -0.35700
N1142       N  0.68439722  0.80704671  0.36142516    -0.27900
C1143       C  0.67451535  0.82340334  0.34123027    -0.03100
C1144       C  0.68717043  0.84897825  0.34317209     0.05500
C1145       C  0.70532832  0.84639118  0.36476273     0.03600
H1146       H  0.65892895  0.81736373  0.32657005     0.08700
H1147       H  0.71946899  0.86178578  0.37228405     0.07500
N1148       N  0.58810774  0.01034400  0.32524540    -0.03100
C1149       C  0.58017859  0.01175319  0.35193613    -0.00500
C1150       C  0.56048761  0.03163897  0.35515818    -0.23400
C1151       C  0.55615702  0.04297232  0.32966429    -0.23600
C1152       C  0.57273109  0.02920537  0.31112509    -0.00600
H1153       H  0.55015242  0.03712190  0.37397497     0.13200
H1154       H  0.54245400  0.05981644  0.32534726     0.13200
N1155       N  0.61176045  0.91798807  0.57688919    -0.26900
N1156       N  0.61355350  0.89222583  0.58510032    -0.34700
C1157       C  0.61718134  0.89140265  0.61240774     0.01500
C1158       C  0.61752071  0.91779850  0.62248012     0.07500
C1159       C  0.61352488  0.93421727  0.59937245    -0.05600
H1160       H  0.61634955  0.87281954  0.62448232     0.08200
H1161       H  0.61030920  0.95613516  0.59921249     0.09400
Cu1162     Cu  0.60286368  0.85882142  0.56132894     0.44200
Cu1163     Cu  0.60472565  0.92821246  0.53508126     0.42000
Cu1164     Cu  0.58444825  0.86900965  0.49193397     0.43900
N1165       N  0.58230617  0.82935219  0.53871697    -0.34300
N1166       N  0.57524024  0.83288081  0.51279168    -0.28500
C1167       C  0.56026989  0.81110233  0.50451171    -0.04600
C1168       C  0.55764855  0.79321247  0.52646849     0.07600
C1169       C  0.57186878  0.80551263  0.54777794     0.01400
H1170       H  0.55096787  0.80904367  0.48443972     0.09000
H1171       H  0.57372623  0.79815855  0.56863283     0.08100
N1172       N  0.59377164  0.90783348  0.47663766    -0.35700
N1173       N  0.60032358  0.92947654  0.49170079    -0.27900
C1174       C  0.60329163  0.95122825  0.47473429    -0.03100
C1175       C  0.59873643  0.94287527  0.44768988     0.05500
C1176       C  0.59264859  0.91519538  0.45005214     0.03600
H1177       H  0.60730495  0.97184271  0.48178440     0.08700
H1178       H  0.58715491  0.90136314  0.43358421     0.07500
N1179       N  0.59068159  0.07993451  0.18301206    -0.03100
C1180       C  0.58251312  0.08255977  0.15636405    -0.00500
C1181       C  0.56013489  0.06573511  0.15153104    -0.23400
C1182       C  0.55431532  0.05248301  0.17579533    -0.23600
C1183       C  0.57355990  0.06112833  0.19483344    -0.00600
H1184       H  0.54906240  0.06348470  0.13238447     0.13200
H1185       H  0.53792882  0.03786563  0.17910957     0.13200
N1186       N  0.63178845  0.18989648  0.93836575    -0.26900
N1187       N  0.63004301  0.21600949  0.93135494    -0.34700
C1188       C  0.63242959  0.21837332  0.90402638     0.01500
C1189       C  0.63560222  0.19264152  0.89274108     0.07500
C1190       C  0.63473109  0.17498383  0.91518078    -0.05600
H1191       H  0.62818223  0.23703056  0.89281660     0.08200
H1192       H  0.63353950  0.15286514  0.91440469     0.09400
Cu1193     Cu  0.61468673  0.24647646  0.95639136     0.44200
Cu1194     Cu  0.62526512  0.17627365  0.97902083     0.42000
Cu1195     Cu  0.58855151  0.22622079  0.02136671     0.43900
N1196       N  0.58900703  0.27120200  0.97924037    -0.34300
N1197       N  0.57909391  0.26378697  0.00331837    -0.28500
C1198       C  0.56156712  0.28320001  0.01205110    -0.04600
C1199       C  0.56020909  0.30361845  0.99232059     0.07600
C1200       C  0.57785894  0.29528148  0.97180545     0.01400
H1201       H  0.54986340  0.28199492  0.03082837     0.09000
H1202       H  0.58170127  0.30551318  0.95250621     0.08100
N1203       N  0.60122841  0.18785514  0.03534376    -0.35700
N1204       N  0.61521196  0.16989611  0.02071887    -0.27900
C1205       C  0.62040477  0.14780639  0.03665694    -0.03100
C1206       C  0.60859306  0.15164916  0.06249425     0.05500
C1207       C  0.59682972  0.17752461  0.06051828     0.03600
H1208       H  0.63230952  0.13056485  0.02976110     0.08700
H1209       H  0.58526114  0.18807069  0.07616059     0.07500
N1210       N  0.68375944  0.12271679  0.23889422    -0.03100
C1211       C  0.69271881  0.14897130  0.23935929    -0.00500
C1212       C  0.71462406  0.15146979  0.25722166    -0.23400
C1213       C  0.71910862  0.12577024  0.26818784    -0.23600
C1214       C  0.69979510  0.10833384  0.25664811    -0.00600
H1215       H  0.72693267  0.16961399  0.26075895     0.13200
H1216       H  0.73543335  0.12018978  0.28219032     0.13200
N1217       N  0.64758454  0.36105057  0.12878996    -0.26900
N1218       N  0.64600934  0.36801989  0.10263321    -0.34700
C1219       C  0.64357351  0.39528492  0.10055792     0.01500
C1220       C  0.64380813  0.40658873  0.12652016     0.07500
C1221       C  0.64668813  0.38421166  0.14401721    -0.05600
H1222       H  0.64536900  0.40642064  0.08144733     0.08200
H1223       H  0.65058697  0.38496723  0.16586121     0.09400
Cu1224     Cu  0.65701183  0.34281942  0.07054874     0.44200
Cu1225     Cu  0.65496797  0.32023687  0.14093714     0.42000
Cu1226     Cu  0.66861097  0.27282738  0.08335214     0.43900
N1227       N  0.67955379  0.31856150  0.04429256    -0.34300
N1228       N  0.68330714  0.29212618  0.04850705    -0.28500
C1229       C  0.70184203  0.28273935  0.03039259    -0.04600
C1230       C  0.71046021  0.30452459  0.01437554     0.07600
C1231       C  0.69588378  0.32689128  0.02373727     0.01400
H1232       H  0.71019429  0.26222865  0.03050203     0.09000
H1233       H  0.69817757  0.34796145  0.01723637     0.08100
N1234       N  0.66410226  0.26079263  0.12386734    -0.35700
N1235       N  0.66085166  0.27759677  0.14491815    -0.27900
C1236       C  0.66294673  0.26284839  0.16826102    -0.03100
C1237       C  0.66807861  0.23562358  0.16158832     0.05500
C1238       C  0.66801947  0.23518967  0.13319724     0.03600
H1239       H  0.66188952  0.27148200  0.18866269     0.08700
H1240       H  0.67121003  0.21768161  0.12004175     0.07500
N1241       N  0.08826654  0.48940950  0.81762041    -0.03100
C1242       C  0.07565503  0.48249076  0.84149862    -0.00500
C1243       C  0.04893824  0.49197839  0.84119609    -0.23400
C1244       C  0.04509224  0.50516979  0.81646653    -0.23600
C1245       C  0.06951155  0.50323876  0.80227857    -0.00600
H1246       H  0.03383366  0.48947936  0.85722624     0.13200
H1247       H  0.02656178  0.51530390  0.80966271     0.13200
N1248       N  0.12743782  0.40431936  0.07067959    -0.26900
N1249       N  0.12855225  0.37916257  0.08078769    -0.34700
C1250       C  0.13191575  0.38033512  0.10814346     0.01500
C1251       C  0.13282304  0.40741815  0.11626371     0.07500
C1252       C  0.12947501  0.42208611  0.09192322    -0.05600
H1253       H  0.13024886  0.36276120  0.12157287     0.08200
H1254       H  0.12646992  0.44396218  0.09013155     0.09400
Cu1255     Cu  0.11707416  0.34405387  0.05976386     0.44200
Cu1256     Cu  0.11989767  0.41269307  0.02842453     0.42000
Cu1257     Cu  0.10241135  0.35164655  0.98914286     0.43900
N1258       N  0.09602636  0.31442205  0.03764318    -0.34300
N1259       N  0.09083902  0.31723610  0.01120122    -0.28500
C1260       C  0.07401393  0.29693018  0.00304029    -0.04600
C1261       C  0.06806709  0.28066621  0.02551979     0.07600
C1262       C  0.08244098  0.29232383  0.04713683     0.01400
H1263       H  0.06515242  0.29536168  0.98272830     0.09000
H1264       H  0.08169740  0.28626733  0.06846750     0.08100
N1265       N  0.10842098  0.38979374  0.97141043    -0.35700
N1266       N  0.11346170  0.41260450  0.98517878    -0.27900
C1267       C  0.11285549  0.43376200  0.96718180    -0.03100
C1268       C  0.10752354  0.42370578  0.94077792     0.05500
C1269       C  0.10487734  0.39567489  0.94470808     0.03600
H1270       H  0.11474501  0.45497267  0.97321585     0.08700
H1271       H  0.09980030  0.38050621  0.92933133     0.07500
N1272       N  0.19600810  0.46293854  0.78286159    -0.03100
C1273       C  0.20845033  0.43924395  0.79055635    -0.00500
C1274       C  0.23537933  0.43930801  0.78204320    -0.23400
C1275       C  0.23940560  0.46348040  0.76811379    -0.23600
C1276       C  0.21461467  0.47742799  0.76773718    -0.00600
H1277       H  0.25050133  0.42350396  0.78562195     0.13200
H1278       H  0.25850015  0.46994960  0.75887905     0.13200
N1279       N  0.15551999  0.22433017  0.90147322    -0.26900
N1280       N  0.15841859  0.22005817  0.92811353    -0.34700
C1281       C  0.15321508  0.19373715  0.93382596     0.01500
C1282       C  0.14734533  0.17980032  0.90984220     0.07500
C1283       C  0.14909629  0.19998461  0.88956001    -0.05600
H1284       H  0.15762895  0.18445690  0.95351262     0.08200
H1285       H  0.14871123  0.19659228  0.86763628     0.09400
Cu1286     Cu  0.17929447  0.24528424  0.95512220     0.44200
Cu1287     Cu  0.16456498  0.26318937  0.88378631     0.42000
Cu1288     Cu  0.20184980  0.30843724  0.93293833     0.43900
N1289       N  0.20725034  0.26795358  0.97771599    -0.34300
N1290       N  0.21510745  0.29255901  0.96978678    -0.28500
C1291       C  0.23410430  0.30223505  0.98740273    -0.04600
C1292       C  0.23876430  0.28235558  0.00705296     0.07600
C1293       C  0.22152971  0.26082392  0.00023063     0.01400
H1294       H  0.24496881  0.32144170  0.98504063     0.09000
H1295       H  0.22004463  0.24117557  0.01039647     0.08100
N1296       N  0.18781908  0.32039062  0.89484971    -0.35700
N1297       N  0.17475495  0.30504074  0.87657104    -0.27900
C1298       C  0.16974517  0.32080925  0.85422123    -0.03100
C1299       C  0.17972024  0.34722580  0.85909751     0.05500
C1300       C  0.19136399  0.34572887  0.88486714     0.03600
H1301       H  0.15972453  0.31362152  0.83573661     0.08700
H1302       H  0.20261756  0.36169689  0.89542342     0.07500
N1303       N  0.08228132  0.58329342  0.68654550    -0.03100
C1304       C  0.06614416  0.59381795  0.66624310    -0.00500
C1305       C  0.03948307  0.58477897  0.66955066    -0.23400
C1306       C  0.03913569  0.56857383  0.69257790    -0.23600
C1307       C  0.06567374  0.56767565  0.70284056    -0.00600
H1308       H  0.02215198  0.58902660  0.65630818     0.13200
H1309       H  0.02136620  0.55801259  0.70066946     0.13200
N1310       N  0.11511847  0.69211717  0.44416272    -0.26900
N1311       N  0.11660136  0.71812779  0.43654748    -0.34700
C1312       C  0.12074088  0.71950110  0.40932041     0.01500
C1313       C  0.12180065  0.69325513  0.39883810     0.07500
C1314       C  0.11769355  0.67639323  0.42149067    -0.05600
H1315       H  0.11979181  0.73825678  0.39752656     0.08200
H1316       H  0.11483022  0.65441274  0.42116744     0.09400
Cu1317     Cu  0.10519969  0.75115549  0.46067009     0.44200
Cu1318     Cu  0.10697122  0.67944170  0.48495230     0.42000
Cu1319     Cu  0.08660845  0.73580172  0.52881555     0.43900
N1320       N  0.08331050  0.77832863  0.48480551    -0.34300
N1321       N  0.07631480  0.77241213  0.51026048    -0.28500
C1322       C  0.05885109  0.79154242  0.51949996    -0.04600
C1323       C  0.05443612  0.81034535  0.49873429     0.07600
C1324       C  0.07038046  0.80141053  0.47704840     0.01400
H1325       H  0.04854860  0.79062505  0.53909895     0.09000
H1326       H  0.07096461  0.80986461  0.45654668     0.08100
N1327       N  0.09342551  0.69654434  0.54310581    -0.35700
N1328       N  0.10004209  0.67531148  0.52766464    -0.27900
C1329       C  0.10047376  0.65272465  0.54382075    -0.03100
C1330       C  0.09395155  0.66030784  0.57065094     0.05500
C1331       C  0.08962409  0.68826300  0.56906012     0.03600
H1332       H  0.10399381  0.63218500  0.53634450     0.08700
H1333       H  0.08324887  0.70164715  0.58552174     0.07500
N1334       N  0.19783567  0.59843378  0.69676313    -0.03100
C1335       C  0.21237112  0.62140743  0.69000676    -0.00500
C1336       C  0.23927908  0.61890479  0.69854072    -0.23400
C1337       C  0.24153550  0.59379149  0.71111215    -0.23600
C1338       C  0.21587324  0.58171533  0.71018698    -0.00600
H1339       H  0.25551574  0.63383782  0.69596608     0.13200
H1340       H  0.25985935  0.58539401  0.72042750     0.13200
N1341       N  0.18911569  0.85423763  0.60797570    -0.26900
N1342       N  0.21109505  0.86539452  0.59663701    -0.34700
C1343       C  0.20644771  0.89192207  0.59134320     0.01500
C1344       C  0.18021903  0.89861140  0.59945915     0.07500
C1345       C  0.16962401  0.87404461  0.60986620    -0.05600
H1346       H  0.22022555  0.90479038  0.57963804     0.08200
H1347       H  0.14863899  0.87034417  0.61602578     0.09400
Cu1348     Cu  0.24393826  0.84420228  0.58070138     0.44200
Cu1349     Cu  0.18754751  0.81112899  0.61608227     0.42000
Cu1350     Cu  0.23854570  0.77289436  0.57468112     0.43900
N1351       N  0.26972682  0.82195296  0.55576575    -0.34300
N1352       N  0.26722696  0.79522087  0.55261957    -0.28500
C1353       C  0.28504944  0.78682004  0.53334715    -0.04600
C1354       C  0.29934910  0.80951966  0.52393252     0.07600
C1355       C  0.28908330  0.83141836  0.53861882     0.01400
H1356       H  0.28686493  0.76593324  0.52618381     0.09000
H1357       H  0.29436846  0.85281444  0.53618599     0.08100
N1358       N  0.21263740  0.75495441  0.60323907    -0.35700
N1359       N  0.19489468  0.76795365  0.61910461    -0.27900
C1360       C  0.18450730  0.74948108  0.63713554    -0.03100
C1361       C  0.19639595  0.72383598  0.63236569     0.05500
C1362       C  0.21380872  0.72842592  0.61050997     0.03600
H1363       H  0.16971971  0.75447560  0.65282065     0.08700
H1364       H  0.22771174  0.71374569  0.60148960     0.07500
N1365       N  0.08799984  0.25627444  0.69852120    -0.03100
C1366       C  0.11282686  0.25146111  0.71013876    -0.00500
C1367       C  0.11457409  0.26415565  0.73537550    -0.23400
C1368       C  0.08998830  0.27749878  0.73928938    -0.23600
C1369       C  0.07387409  0.27229425  0.71641745    -0.00600
H1370       H  0.13193609  0.26399235  0.74926161     0.13200
H1371       H  0.08452023  0.28987038  0.75684663     0.13200
N1372       N  0.33497347  0.16304090  0.65308323    -0.26900
N1373       N  0.34230171  0.13719023  0.64970652    -0.34700
C1374       C  0.36958284  0.13576065  0.64663526     0.01500
C1375       C  0.38053141  0.16179839  0.64827126     0.07500
C1376       C  0.35796554  0.17865025  0.65274389    -0.05600
H1377       H  0.38102208  0.11678893  0.64676285     0.08200
H1378       H  0.35851710  0.20022089  0.65780250     0.09400
Cu1379     Cu  0.31763067  0.10363967  0.65738863     0.44200
Cu1380     Cu  0.29393069  0.17437293  0.66119283     0.42000
Cu1381     Cu  0.24794827  0.11419305  0.66753093     0.43900
N1382       N  0.29259415  0.07341853  0.67329563    -0.34300
N1383       N  0.26601699  0.07703296  0.67665661    -0.28500
C1384       C  0.25569264  0.05574321  0.69089660    -0.04600
C1385       C  0.27703783  0.03810270  0.69706680     0.07600
C1386       C  0.30009958  0.04994786  0.68552717     0.01400
H1387       H  0.23488210  0.05457247  0.69846667     0.09000
H1388       H  0.32109194  0.04309124  0.68761647     0.08100
N1389       N  0.23490056  0.15445299  0.66664484    -0.35700
N1390       N  0.25085224  0.17642456  0.66612916    -0.27900
C1391       C  0.23486027  0.19871741  0.66984932    -0.03100
C1392       C  0.20755746  0.19031999  0.67244276     0.05500
C1393       C  0.20875132  0.16208745  0.67024407     0.03600
H1394       H  0.24281827  0.21928725  0.67197402     0.08700
H1395       H  0.19189002  0.14778779  0.67223799     0.07500
N1396       N  0.05804779  0.21967268  0.59138941    -0.03100
C1397       C  0.06295481  0.19505157  0.57903970    -0.00500
C1398       C  0.05065883  0.19445047  0.55342833    -0.23400
C1399       C  0.03805117  0.21930091  0.54966029    -0.23600
C1400       C  0.04284867  0.23443935  0.57308933    -0.00600
H1401       H  0.05099420  0.17768504  0.53891258     0.13200
H1402       H  0.02656534  0.22568343  0.53174381     0.13200
N1403       N  0.15414957  0.96766649  0.58555931    -0.26900
N1404       N  0.16149562  0.95894554  0.56095078    -0.34700
C1405       C  0.16833587  0.93239095  0.56230689     0.01500
C1406       C  0.16557861  0.92322130  0.58896171     0.07500
C1407       C  0.15662573  0.94632372  0.60331196    -0.05600
H1408       H  0.17791431  0.92134416  0.54566192     0.08200
H1409       H  0.15470267  0.94812440  0.62533522     0.09400
Cu1410     Cu  0.17167316  0.98359489  0.52786261     0.44200
Cu1411     Cu  0.14551767  0.00988792  0.59294800     0.42000
Cu1412     Cu  0.18178779  0.05309784  0.54362180     0.43900
N1413       N  0.19382655  0.00948439  0.50242499    -0.34300
N1414       N  0.19834856  0.03531847  0.50903961    -0.28500
C1415       C  0.21527962  0.04664524  0.49052479    -0.04600
C1416       C  0.22196472  0.02689440  0.47135411     0.07600
C1417       C  0.20797760  0.00352635  0.47950667     0.01400
H1418       H  0.22283733  0.06747690  0.49149962     0.09000
H1419       H  0.20896757  0.98342792  0.47022671     0.08100
N1420       N  0.15615875  0.06837565  0.57351362    -0.35700
N1421       N  0.14139666  0.05336819  0.59063655    -0.27900
C1422       C  0.12322585  0.07020155  0.60313469    -0.03100
C1423       C  0.12687166  0.09688066  0.59327410     0.05500
C1424       C  0.14817823  0.09464899  0.57484383     0.03600
H1425       H  0.10771207  0.06334402  0.61739599     0.08700
H1426       H  0.15569751  0.11062402  0.56141490     0.07500
N1427       N  0.98421819  0.35997661  0.58547722    -0.03100
C1428       C  0.98111608  0.38492784  0.57346065    -0.00500
C1429       C  0.99370763  0.38513142  0.54813265    -0.23400
C1430       C  0.00510943  0.35958677  0.54457480    -0.23600
C1431       C  0.99940596  0.34458374  0.56798779    -0.00600
H1432       H  0.99446300  0.40201988  0.53377353     0.13200
H1433       H  0.01686831  0.35287845  0.52703837     0.13200
N1434       N  0.87251524  0.60537990  0.61444355    -0.26900
N1435       N  0.84633144  0.60956578  0.60864281    -0.34700
C1436       C  0.84036978  0.63614742  0.61172564     0.01500
C1437       C  0.86373523  0.65020384  0.61942601     0.07500
C1438       C  0.88392632  0.62996757  0.62079037    -0.05600
H1439       H  0.82140110  0.64529222  0.60469424     0.08200
H1440       H  0.90573996  0.63336164  0.62322660     0.09400
Cu1441     Cu  0.82162566  0.58360025  0.58617396     0.44200
Cu1442     Cu  0.89109438  0.56644895  0.60831855     0.42000
Cu1443     Cu  0.84844707  0.52320891  0.56168191     0.43900
N1444       N  0.80288905  0.56244129  0.55463998    -0.34300
N1445       N  0.81250271  0.53890147  0.54563636    -0.28500
C1446       C  0.79715770  0.53043841  0.52420450    -0.04600
C1447       C  0.77736373  0.55012597  0.51924643     0.07600
C1448       C  0.78167958  0.57016303  0.53881893     0.01400
H1449       H  0.80111732  0.51225266  0.51218745     0.09000
H1450       H  0.77065389  0.58924124  0.54100137     0.08100
N1451       N  0.88481359  0.51113413  0.57989971    -0.35700
N1452       N  0.90044426  0.52539870  0.59700243    -0.27900
C1453       C  0.92166758  0.50919219  0.60483938    -0.03100
C1454       C  0.91916353  0.48375706  0.59179979     0.05500
C1455       C  0.89554234  0.48620252  0.57626866     0.03600
H1456       H  0.93728152  0.51529882  0.61940808     0.08700
H1457       H  0.88657649  0.47080245  0.56301465     0.07500
N1458       N  0.94950129  0.33145669  0.69323413    -0.03100
C1459       C  0.92429139  0.33586943  0.70440153    -0.00500
C1460       C  0.92456144  0.32817822  0.73173714    -0.23400
C1461       C  0.95045784  0.31847885  0.73743980    -0.23600
C1462       C  0.96547592  0.32095069  0.71361569    -0.00600
H1463       H  0.90786330  0.32990510  0.74619600     0.13200
H1464       H  0.95753258  0.31028465  0.75682803     0.13200
N1465       N  0.70259599  0.42832301  0.64579395    -0.26900
N1466       N  0.69562737  0.45448775  0.64623850    -0.34700
C1467       C  0.66835416  0.45683575  0.64366339     0.01500
C1468       C  0.65681899  0.43107975  0.64176783     0.07500
C1469       C  0.67922303  0.41334731  0.64342834    -0.05600
H1470       H  0.65732615  0.47573284  0.64711495     0.08200
H1471       H  0.67829036  0.39131628  0.64564576     0.09400
Cu1472     Cu  0.71969755  0.48558329  0.66164258     0.44200
Cu1473     Cu  0.74376465  0.41562891  0.65318414     0.42000
Cu1474     Cu  0.78633239  0.47112481  0.68265699     0.43900
N1475       N  0.73979524  0.50940755  0.69022257    -0.34300
N1476       N  0.76529781  0.50438429  0.69774517    -0.28500
C1477       C  0.77196689  0.52067919  0.71897394    -0.04600
C1478       C  0.74924706  0.53628585  0.72538554     0.07600
C1479       C  0.72919754  0.52864157  0.70678252     0.01400
H1480       H  0.79109954  0.51966419  0.73023881     0.09000
H1481       H  0.70810574  0.53547204  0.70620436     0.08100
N1482       N  0.80120898  0.43322047  0.67155064    -0.35700
N1483       N  0.78656748  0.41252852  0.66171107    -0.27900
C1484       C  0.80339620  0.39058663  0.65956821    -0.03100
C1485       C  0.82975553  0.39810638  0.66810148     0.05500
C1486       C  0.82717167  0.42518024  0.67581653     0.03600
H1487       H  0.79684766  0.37044534  0.65296262     0.08700
H1488       H  0.84264149  0.43782519  0.68553397     0.07500
C1489       C  0.90397941  0.37488593  0.67796976    -0.08700
C1490       C  0.90034471  0.34953144  0.69098962     0.07500
C1491       C  0.87338418  0.33897506  0.69344173    -0.02500
C1492       C  0.85081922  0.35433449  0.68432080    -0.07000
C1493       C  0.85432607  0.38053308  0.67299496     0.06600
C1494       C  0.88141169  0.39035995  0.66907434    -0.02000
Br1495     Br  0.88919887  0.42470965  0.65162405    -0.01700
H1496       H  0.92441158  0.38335683  0.67578856     0.10500
H1497       H  0.83033540  0.34623392  0.68730274     0.08500
Br1498     Br  0.86597787  0.30360018  0.70901423    -0.02100
C1499       C  0.95353496  0.33442661  0.61625370    -0.08700
C1500       C  0.97570802  0.35241535  0.61261281     0.07500
C1501       C  0.98934428  0.36291277  0.63568859    -0.02500
C1502       C  0.98012683  0.35616519  0.66188887    -0.07000
C1503       C  0.95823129  0.33789754  0.66574839     0.06600
C1504       C  0.94509961  0.32664440  0.64254178    -0.02000
Br1505     Br  0.91667951  0.29964381  0.64549448    -0.01700
H1506       H  0.94272521  0.32642816  0.59858281     0.10500
H1507       H  0.98989785  0.36554509  0.67928035     0.08500
Br1508     Br  0.02118420  0.38573250  0.63226466    -0.02100
C1509       C  0.92257523  0.43300456  0.58940592    -0.08700
C1510       C  0.93617921  0.45824964  0.59311904     0.07500
C1511       C  0.96519732  0.45813697  0.59416491    -0.02500
C1512       C  0.97958385  0.43354542  0.58967288    -0.07000
C1513       C  0.96568717  0.40875918  0.58445749     0.06600
C1514       C  0.93689045  0.40865933  0.58489037    -0.02000
Br1515     Br  0.91583661  0.37680358  0.57546302    -0.01700
H1516       H  0.90038544  0.43227705  0.58866489     0.10500
H1517       H  0.00178966  0.43403043  0.58886526     0.08500
Br1518     Br  0.98655617  0.49090675  0.59849907    -0.02100
C1519       C  0.99332830  0.29427845  0.57752688    -0.08700
C1520       C  0.01087172  0.31679645  0.57344770     0.07500
C1521       C  0.03931574  0.31193179  0.57123642    -0.02500
C1522       C  0.04943643  0.28512119  0.57178022    -0.07000
C1523       C  0.03205944  0.26270549  0.57659134     0.06600
C1524       C  0.00371353  0.26753375  0.57953928    -0.02000
Br1525     Br  0.97821072  0.23796374  0.58452747    -0.01700
H1526       H  0.97139451  0.29712930  0.57775386     0.10500
H1527       H  0.07088194  0.28180811  0.56727419     0.08500
Br1528     Br  0.06542865  0.34116088  0.56722828    -0.02100
C1529       C  0.06579414  0.14535154  0.58961295    -0.08700
C1530       C  0.07875608  0.17113818  0.58984244     0.07500
C1531       C  0.10727508  0.17218107  0.59462811    -0.02500
C1532       C  0.12222651  0.14774184  0.59784789    -0.07000
C1533       C  0.10938911  0.12184588  0.59626698     0.06600
C1534       C  0.08063230  0.12096973  0.59279435    -0.02000
Br1535     Br  0.06068158  0.08736258  0.58806594    -0.01700
H1536       H  0.04400235  0.14409861  0.58529349     0.10500
H1537       H  0.14432266  0.14893511  0.60005653     0.08500
Br1538     Br  0.12741103  0.20593683  0.59311788    -0.02100
C1539       C  0.04330165  0.31313099  0.71497678    -0.08700
C1540       C  0.04617763  0.28458358  0.71225454     0.07500
C1541       C  0.02213064  0.26850522  0.71071199    -0.02500
C1542       C  0.99638447  0.28107840  0.70834453    -0.07000
C1543       C  0.99357827  0.30957288  0.71066317     0.06600
C1544       C  0.01730239  0.32542844  0.71571382    -0.02000
Br1545     Br  0.01524244  0.36256559  0.72851456    -0.01700
H1546       H  0.06130893  0.32569083  0.71862122     0.10500
H1547       H  0.97815152  0.26836295  0.70729582     0.08500
Br1548     Br  0.02223002  0.23016462  0.71886662    -0.02100
C1549       C  0.06670536  0.22215554  0.66813580    -0.08700
C1550       C  0.07977752  0.24749636  0.67159860     0.07500
C1551       C  0.08676341  0.26290259  0.64836814    -0.02500
C1552       C  0.08079001  0.25274838  0.62222161    -0.07000
C1553       C  0.06587137  0.22831998  0.61866622     0.06600
C1554       C  0.05829201  0.21326308  0.64215360    -0.02000
Br1555     Br  0.03448703  0.18203121  0.64048762    -0.01700
H1556       H  0.06267405  0.20939302  0.68575927     0.10500
H1557       H  0.08816331  0.26387311  0.60467509     0.08500
Br1558     Br  0.10467692  0.29772700  0.65155427    -0.02100
C1559       C  0.16210436  0.19343014  0.69583818    -0.08700
C1560       C  0.18264548  0.20643635  0.68015487     0.07500
C1561       C  0.17849803  0.23408694  0.67244804    -0.02500
C1562       C  0.15527616  0.24827398  0.68177646    -0.07000
C1563       C  0.13536762  0.23525106  0.69792293     0.06600
C1564       C  0.13867293  0.20747081  0.70446986    -0.02000
Br1565     Br  0.11193844  0.18805552  0.72580122    -0.01700
H1566       H  0.16441201  0.17229709  0.70209044     0.10500
H1567       H  0.15291866  0.26969647  0.67661037     0.08500
Br1568     Br  0.20250193  0.25335279  0.64799339    -0.02100
C1569       C  0.19928057  0.67084084  0.69033091    -0.08700
C1570       C  0.20213377  0.64633460  0.67552786     0.07500
C1571       C  0.19993988  0.64725218  0.64678678    -0.02500
C1572       C  0.19624087  0.67247632  0.63332594    -0.07000
C1573       C  0.19459036  0.69735963  0.64799741     0.06600
C1574       C  0.19525208  0.69608220  0.67700072    -0.02000
Br1575     Br  0.19409474  0.72806539  0.69977352    -0.01700
H1576       H  0.20140144  0.67048050  0.71245690     0.10500
H1577       H  0.19581628  0.67275006  0.61111347     0.08500
Br1578     Br  0.20467954  0.61486527  0.62507734    -0.02100
C1579       C  0.12909386  0.56581224  0.68198801    -0.08700
C1580       C  0.11136653  0.58715456  0.68900940     0.07500
C1581       C  0.12239488  0.61281186  0.69621104    -0.02500
C1582       C  0.15065016  0.61572034  0.69971228    -0.07000
C1583       C  0.16868023  0.59436402  0.69304122     0.06600
C1584       C  0.15755814  0.56971981  0.68247950    -0.02000
Br1585     Br  0.17931413  0.54283061  0.66411620    -0.01700
H1586       H  0.12062826  0.54671071  0.67442414     0.10500
H1587       H  0.15851951  0.63486218  0.70763112     0.08500
Br1588     Br  0.09966177  0.64424365  0.70228543    -0.02100
C1589       C  0.09724056  0.60438768  0.62616219    -0.08700
C1590       C  0.07499779  0.61176508  0.64294904     0.07500
C1591       C  0.05992640  0.63545907  0.63600045    -0.02500
C1592       C  0.06648341  0.65047974  0.61248476    -0.07000
C1593       C  0.08825185  0.64289870  0.59526523     0.06600
C1594       C  0.10408876  0.61981053  0.60268871    -0.02000
Br1595     Br  0.13616516  0.60930466  0.58267159    -0.01700
H1596       H  0.10909189  0.58629558  0.63096215     0.10500
H1597       H  0.05417053  0.66825853  0.60757901     0.08500
Br1598     Br  0.03078574  0.64937350  0.65846426    -0.02100
C1599       C  0.19571167  0.52582140  0.76121407    -0.08700
C1600       C  0.20999260  0.50296552  0.75084183     0.07500
C1601       C  0.22277938  0.50594808  0.72488966    -0.02500
C1602       C  0.22393860  0.53155984  0.71202833    -0.07000
C1603       C  0.21044840  0.55441237  0.72286432     0.06600
C1604       C  0.19570179  0.55120383  0.74743262    -0.02000
Br1605     Br  0.17772279  0.58159257  0.76446764    -0.01700
H1606       H  0.18556661  0.52482076  0.78065047     0.10500
H1607       H  0.23529741  0.53362197  0.69306318     0.08500
Br1608     Br  0.23785118  0.47572056  0.70465153    -0.02100
C1609       C  0.18665083  0.42057707  0.83305573    -0.08700
C1610       C  0.19582491  0.41623212  0.80621271     0.07500
C1611       C  0.19563665  0.38927253  0.79570431    -0.02500
C1612       C  0.18853639  0.36710845  0.81264285    -0.07000
C1613       C  0.18153534  0.37123273  0.84023977     0.06600
C1614       C  0.17933499  0.39849980  0.84996558    -0.02000
Br1615     Br  0.16598534  0.40717412  0.88594222    -0.01700
H1616       H  0.18623455  0.44111906  0.84136384     0.10500
H1617       H  0.18983695  0.34649479  0.80454752     0.08500
Br1618     Br  0.20518801  0.38166211  0.75833290    -0.02100
C1619       C  0.08833189  0.54160586  0.77409913    -0.08700
C1620       C  0.07419287  0.51655810  0.77514912     0.07500
C1621       C  0.06007886  0.50772870  0.75148790    -0.02500
C1622       C  0.06090832  0.52336235  0.72740811    -0.07000
C1623       C  0.07325311  0.54949033  0.72666291     0.06600
C1624       C  0.08696855  0.55857009  0.75072848    -0.02000
Br1625     Br  0.09907783  0.59540891  0.75591908    -0.01700
H1626       H  0.09805196  0.54932987  0.79257547     0.10500
H1627       H  0.04961012  0.51599988  0.70969781     0.08500
Br1628     Br  0.03630337  0.47635066  0.75171047    -0.02100
C1629       C  0.13808941  0.49547856  0.82103341    -0.08700
C1630       C  0.11548912  0.48215742  0.80925834     0.07500
C1631       C  0.11984251  0.46180152  0.78931274    -0.02500
C1632       C  0.14631313  0.45677466  0.77966016    -0.07000
C1633       C  0.16883423  0.47072381  0.79081123     0.06600
C1634       C  0.16472105  0.48890999  0.81284544    -0.02000
Br1635     Br  0.19500629  0.50382911  0.83325184    -0.01700
H1636       H  0.13499996  0.51062592  0.83690186     0.10500
H1637       H  0.14958152  0.44111715  0.76428784     0.08500
Br1638     Br  0.09085803  0.43836667  0.77703756    -0.02100
C1639       C  0.10613198  0.47776363  0.88293558    -0.08700
C1640       C  0.08726459  0.46599396  0.86453112     0.07500
C1641       C  0.07634278  0.44003838  0.87079607    -0.02500
C1642       C  0.08352105  0.42680019  0.89530108    -0.07000
C1643       C  0.10176615  0.43876077  0.91439769     0.06600
C1644       C  0.11370723  0.46435076  0.90742949    -0.02000
Br1645     Br  0.14131164  0.48175473  0.92949495    -0.01700
H1646       H  0.11440789  0.49790903  0.87873432     0.10500
H1647       H  0.07399787  0.40724503  0.89965398     0.08500
Br1648     Br  0.05095173  0.42195668  0.84662491    -0.02100
C1649       C  0.69873136  0.17121728  0.19413074    -0.08700
C1650       C  0.68482675  0.17025191  0.21917680     0.07500
C1651       C  0.66527332  0.19050782  0.22509653    -0.02500
C1652       C  0.65983677  0.21129208  0.20594772    -0.07000
C1653       C  0.67387895  0.21252932  0.18078969     0.06600
C1654       C  0.69375497  0.19214987  0.17512012    -0.02000
Br1655     Br  0.71723697  0.19291491  0.14356824    -0.01700
H1656       H  0.71430645  0.15604836  0.18974338     0.10500
H1657       H  0.64465888  0.22667928  0.21085580     0.08500
Br1658     Br  0.64611408  0.19100207  0.25934300    -0.02100
C1659       C  0.64041667  0.08813154  0.18535398    -0.08700
C1660       C  0.61397935  0.09300439  0.19569541     0.07500
C1661       C  0.61096953  0.10949713  0.21920387    -0.02500
C1662       C  0.63418170  0.11995654  0.23233718    -0.07000
C1663       C  0.66054909  0.11306628  0.22345770     0.06600
C1664       C  0.66369416  0.09756160  0.19943764    -0.02000
Br1665     Br  0.69930151  0.08892441  0.18550786    -0.01700
H1666       H  0.64290062  0.07571846  0.16713196     0.10500
H1667       H  0.63174780  0.13245583  0.25047656     0.08500
Br1668     Br  0.57580348  0.11896300  0.23396698    -0.02100
C1669       C  0.60196691  0.08822673  0.10940771    -0.08700
C1670       C  0.59481049  0.10036494  0.13452526     0.07500
C1671       C  0.59507446  0.12919433  0.13612639    -0.02500
C1672       C  0.60168684  0.14499224  0.11299581    -0.07000
C1673       C  0.60700098  0.13303379  0.08720747     0.06600
C1674       C  0.60784956  0.10397760  0.08594258    -0.02000
Br1675     Br  0.61396035  0.08361742  0.05289208    -0.01700
H1676       H  0.60153804  0.06610220  0.10762927     0.10500
H1677       H  0.60129790  0.16704910  0.11508510     0.08500
Br1678     Br  0.58273632  0.14868221  0.16776797    -0.02100
C1679       C  0.59683905  0.03402961  0.26501245    -0.08700
C1680       C  0.57264906  0.03517008  0.28057764     0.07500
C1681       C  0.54822146  0.04245566  0.26639238    -0.02500
C1682       C  0.54921925  0.05136903  0.23898673    -0.07000
C1683       C  0.57384597  0.05147154  0.22408660     0.06600
C1684       C  0.59729135  0.04052800  0.23689801    -0.02000
Br1685     Br  0.62862968  0.02950133  0.21607237    -0.01700
H1686       H  0.61555455  0.02781214  0.27453237     0.10500
H1687       H  0.53039260  0.05776675  0.22903516     0.08500
Br1688     Br  0.51223821  0.03767882  0.28170767    -0.02100
C1689       C  0.60795575  0.99979546  0.39376068    -0.08700
C1690       C  0.58805708  0.99237738  0.37421861     0.07500
C1691       C  0.57315756  0.96800368  0.37818726    -0.02500
C1692       C  0.57745221  0.95208464  0.40175750    -0.07000
C1693       C  0.59666052  0.95981297  0.42202195     0.06600
C1694       C  0.61273927  0.98355811  0.41718713    -0.02000
Br1695     Br  0.64255009  0.99419208  0.44068474    -0.01700
H1696       H  0.61961791  0.01849622  0.39098296     0.10500
H1697       H  0.56487877  0.93400692  0.40460637     0.08500
Br1698     Br  0.54539505  0.95652756  0.35265583    -0.02100
C1699       C  0.67778017  0.03391347  0.26660641    -0.08700
C1700       C  0.70251113  0.01955372  0.26337945     0.07500
C1701       C  0.72675206  0.03541444  0.26003740    -0.02500
C1702       C  0.72519304  0.06398192  0.25715845    -0.07000
C1703       C  0.70021929  0.07792883  0.25993909     0.06600
C1704       C  0.67686353  0.06263668  0.26702918    -0.02000
Br1705     Br  0.64544747  0.07971438  0.28308403    -0.01700
H1706       H  0.65905807  0.02290781  0.26947834     0.10500
H1707       H  0.74385828  0.07548725  0.25348086     0.08500
Br1708     Br  0.76307968  0.02039136  0.26237821    -0.02100
C1709       C  0.63751990  0.96822319  0.28436823    -0.08700
C1710       C  0.66270283  0.97815644  0.29448077     0.07500
C1711       C  0.66286294  0.99587788  0.31717566    -0.02500
C1712       C  0.63803120  0.00545900  0.32766207    -0.07000
C1713       C  0.61282192  0.99703061  0.31633228     0.06600
C1714       C  0.61263694  0.97735685  0.29528408    -0.02000
Br1715     Br  0.57900838  0.96392913  0.27985915    -0.01700
H1716       H  0.63729747  0.95422092  0.26714585     0.10500
H1717       H  0.63836618  0.02050583  0.34394947     0.08500
Br1718     Br  0.69648404  0.00846666  0.33334963    -0.02100
C1719       C  0.68695899  0.92337195  0.32039386    -0.08700
C1720       C  0.68860663  0.92086328  0.29178012     0.07500
C1721       C  0.68558595  0.89449810  0.28005980    -0.02500
C1722       C  0.68345005  0.87127760  0.29701110    -0.07000
C1723       C  0.68393666  0.87378543  0.32569937     0.06600
C1724       C  0.68419668  0.90034567  0.33724518    -0.02000
Br1725     Br  0.68003173  0.90677159  0.37588278    -0.01700
H1726       H  0.68892068  0.94327675  0.32995332     0.10500
H1727       H  0.68252498  0.85113849  0.28772362     0.08500
Br1728     Br  0.68372454  0.88893910  0.24113327    -0.02100
C1729       C  0.69729150  0.24771809  0.63902908    -0.08700
C1730       C  0.68405120  0.24176924  0.61406187     0.07500
C1731       C  0.66040209  0.22510990  0.61454276    -0.02500
C1732       C  0.65044264  0.21503373  0.63955258    -0.07000
C1733       C  0.66313117  0.22165667  0.66470869     0.06600
C1734       C  0.68724178  0.23781315  0.66413391    -0.02000
Br1735     Br  0.70586377  0.24976601  0.69673661    -0.01700
H1736       H  0.71521460  0.26089624  0.63905488     0.10500
H1737       H  0.63175390  0.20296584  0.63941612     0.08500
Br1738     Br  0.63854011  0.21856324  0.58244354    -0.02100
C1739       C  0.68942504  0.20290254  0.53920924    -0.08700
C1740       C  0.70504906  0.21454301  0.56035649     0.07500
C1741       C  0.72122843  0.19745746  0.57707172    -0.02500
C1742       C  0.71973121  0.16906643  0.57375045    -0.07000
C1743       C  0.70335768  0.15760982  0.55302508     0.06600
C1744       C  0.68887225  0.17475114  0.53511620    -0.02000
Br1745     Br  0.66775765  0.16047277  0.50512141    -0.01700
H1746       H  0.67656185  0.21557468  0.52663490     0.10500
H1747       H  0.73119257  0.15591541  0.58744632     0.08500
Br1748     Br  0.74657593  0.21188654  0.60349865    -0.02100
C1749       C  0.62890042  0.12708675  0.55840705    -0.08700
C1750       C  0.65388839  0.12506174  0.57261619     0.07500
C1751       C  0.65480536  0.13213636  0.60053058    -0.02500
C1752       C  0.63078136  0.14003498  0.61396615    -0.07000
C1753       C  0.60528361  0.14063665  0.60026095     0.06600
C1754       C  0.60474051  0.13499576  0.57180761    -0.02000
Br1755     Br  0.57173111  0.13504416  0.55032722    -0.01700
H1756       H  0.62800942  0.12163255  0.53688713     0.10500
H1757       H  0.63185323  0.14441907  0.63572510     0.08500
Br1758     Br  0.68754833  0.12819059  0.62206091    -0.02100
C1759       C  0.72149033  0.25452392  0.47062904    -0.08700
C1760       C  0.75003693  0.25855275  0.46885435     0.07500
C1761       C  0.76449268  0.26511126  0.49312955    -0.02500
C1762       C  0.75110877  0.26443770  0.51858446    -0.07000
C1763       C  0.72268735  0.26021974  0.52027932     0.06600
C1764       C  0.70766771  0.25673900  0.49575071    -0.02000
Br1765     Br  0.66839704  0.25977887  0.49465208    -0.01700
H1766       H  0.70957540  0.25194036  0.45199978     0.10500
H1767       H  0.76256173  0.26947226  0.53700026     0.08500
Br1768     Br  0.80038595  0.28107390  0.49246192    -0.02100
C1769       C  0.80946147  0.23850108  0.33090438    -0.08700
C1770       C  0.83799161  0.23972838  0.33491052     0.07500
C1771       C  0.84800220  0.24182851  0.36221501    -0.02500
C1772       C  0.82969307  0.24498519  0.38420134    -0.07000
C1773       C  0.80128998  0.24608441  0.37977207     0.06600
C1774       C  0.79123466  0.24175602  0.35289512    -0.02000
Br1775     Br  0.75264791  0.24074333  0.34491329    -0.01700
H1776       H  0.80117937  0.23648544  0.31036531     0.10500
H1777       H  0.83783174  0.24815292  0.40464732     0.08500
Br1778     Br  0.88636280  0.24055987  0.37122571    -0.02100
C1779       C  0.77219392  0.12065918  0.48194209    -0.08700
C1780       C  0.79375459  0.13146386  0.49769357     0.07500
C1781       C  0.78933926  0.13708885  0.52562892    -0.02500
C1782       C  0.76399872  0.13099441  0.53757892    -0.07000
C1783       C  0.74246735  0.11983363  0.52197724     0.06600
C1784       C  0.74655925  0.11528520  0.49369945    -0.02000
Br1785     Br  0.71798452  0.10174325  0.47013906    -0.01700
H1786       H  0.77559379  0.11522622  0.46070903     0.10500
H1787       H  0.76164437  0.13381608  0.55940772     0.08500
Br1788     Br  0.81785358  0.15178660  0.54855931    -0.02100
C1789       C  0.79715515  0.17213648  0.44111943    -0.08700
C1790       C  0.81995643  0.17443866  0.45866434     0.07500
C1791       C  0.82954580  0.20072390  0.46579774    -0.02500
C1792       C  0.81684764  0.22397314  0.45489940    -0.07000
C1793       C  0.79342658  0.22172697  0.43835360     0.06600
C1794       C  0.78364054  0.19552209  0.43134165    -0.02000
Br1795     Br  0.75194365  0.19095985  0.40850392    -0.01700
H1796       H  0.78995867  0.15213580  0.43487681     0.10500
H1797       H  0.82548683  0.24388344  0.45914002     0.08500
Br1798     Br  0.85874127  0.20606481  0.49161819    -0.02100
C1799       C  0.87324268  0.15751815  0.41856285    -0.08700
C1800       C  0.87976864  0.15464992  0.44642246     0.07500
C1801       C  0.90696584  0.15976180  0.45509365    -0.02500
C1802       C  0.92734428  0.16573009  0.43584604    -0.07000
C1803       C  0.92142282  0.16617379  0.40766522     0.06600
C1804       C  0.89372625  0.16308412  0.39917192    -0.02000
Br1805     Br  0.88231813  0.16576225  0.36151899    -0.01700
H1806       H  0.85243402  0.15377705  0.41161143     0.10500
H1807       H  0.94827175  0.16827863  0.44293518     0.08500
Br1808     Br  0.91777092  0.15794033  0.49297070    -0.02100
C1809       C  0.92062794  0.95142497  0.64845571    -0.08700
C1810       C  0.92885099  0.97884108  0.64567868     0.07500
C1811       C  0.92783251  0.99103322  0.61940874    -0.02500
C1812       C  0.92128480  0.97520392  0.59626099    -0.07000
C1813       C  0.91565200  0.94712210  0.59875180     0.06600
C1814       C  0.91397045  0.93561737  0.62530830    -0.02000
Br1815     Br  0.90301839  0.89825013  0.63097503    -0.01700
H1816       H  0.92068676  0.94187609  0.66851415     0.10500
H1817       H  0.92228707  0.98452244  0.57612274     0.08500
Br1818     Br  0.93556665  0.02921899  0.61401198    -0.02100
C1819       C  0.87230156  0.96606344  0.73531267    -0.08700
C1820       C  0.84966720  0.97294320  0.71908365     0.07500
C1821       C  0.85365485  0.98711180  0.69432311    -0.02500
C1822       C  0.88003602  0.99529518  0.68673987    -0.07000
C1823       C  0.90283798  0.98840463  0.70296064     0.06600
C1824       C  0.89886488  0.97263178  0.72686205    -0.02000
Br1825     Br  0.92875102  0.95651072  0.74664092    -0.01700
H1826       H  0.86929131  0.95473039  0.75413331     0.10500
H1827       H  0.88283215  0.00706907  0.66813263     0.08500
Br1828     Br  0.82347686  0.99614158  0.67076649    -0.02100
C1829       C  0.80693090  0.91807520  0.67352868    -0.08700
C1830       C  0.81976926  0.92047539  0.69915113     0.07500
C1831       C  0.83822533  0.89982196  0.70738431    -0.02500
C1832       C  0.84436791  0.87802246  0.68959414    -0.07000
C1833       C  0.83150416  0.87554568  0.66382985     0.06600
C1834       C  0.81206716  0.89578912  0.65619528    -0.02000
Br1835     Br  0.78844889  0.89271880  0.62471062    -0.01700
H1836       H  0.79154083  0.93294744  0.66760170     0.10500
H1837       H  0.85870805  0.86248229  0.69631886     0.08500
Br1838     Br  0.85292040  0.89844461  0.74383114    -0.02100
C1839       C  0.79966173  0.03325516  0.79874399    -0.08700
C1840       C  0.80859001  0.05670707  0.78480734     0.07500
C1841       C  0.82007275  0.05362543  0.75849244    -0.02500
C1842       C  0.82068095  0.02766455  0.74587533    -0.07000
C1843       C  0.81052204  0.00426376  0.75941331     0.06600
C1844       C  0.80144924  0.00724046  0.78678239    -0.02000
Br1845     Br  0.79147361  0.97640111  0.80914609    -0.01700
H1846       H  0.79057672  0.03521594  0.81887871     0.10500
H1847       H  0.82758747  0.02626406  0.72491758     0.08500
Br1848     Br  0.83270062  0.08475495  0.73811615    -0.02100
C1849       C  0.82285059  0.15077561  0.85361762    -0.08700
C1850       C  0.81477407  0.15113279  0.82600683     0.07500
C1851       C  0.81352688  0.17654791  0.81227385    -0.02500
C1852       C  0.81814723  0.20110729  0.82663975    -0.07000
C1853       C  0.82386450  0.20095605  0.85489653     0.06600
C1854       C  0.82742410  0.17528956  0.86806961    -0.02000
Br1855     Br  0.83882019  0.17223274  0.90569557    -0.01700
H1856       H  0.82442244  0.13139465  0.86433346     0.10500
H1857       H  0.81578027  0.22041637  0.81596038     0.08500
Br1858     Br  0.80520602  0.17865423  0.77386796    -0.02100
C1859       C  0.92756915  0.06153072  0.76600335    -0.08700
C1860       C  0.94593787  0.05448489  0.78723623     0.07500
C1861       C  0.96170392  0.03035719  0.78384353    -0.02500
C1862       C  0.96130607  0.01616589  0.75886780    -0.07000
C1863       C  0.94397944  0.02411601  0.73732402     0.06600
C1864       C  0.92631649  0.04649304  0.74142910    -0.02000
Br1865     Br  0.90244929  0.05933684  0.71290527    -0.01700
H1866       H  0.91520827  0.07962724  0.76741319     0.10500
H1867       H  0.97493960  0.99889689  0.75611313     0.08500
Br1868     Br  0.98370562  0.01492708  0.81272593    -0.02100
C1869       C  0.88530746  0.07459409  0.83549266    -0.08700
C1870       C  0.90412895  0.09082039  0.82122204     0.07500
C1871       C  0.89462362  0.11180365  0.80384125    -0.02500
C1872       C  0.86653339  0.11514804  0.79961428    -0.07000
C1873       C  0.84765302  0.09844676  0.81331504     0.06600
C1874       C  0.85714124  0.07862655  0.83203684    -0.02000
Br1875     Br  0.83260981  0.05878507  0.85533035    -0.01700
H1876       H  0.89262699  0.05935049  0.84987476     0.10500
H1877       H  0.85929615  0.13078186  0.78560888     0.08500
Br1878     Br  0.91938128  0.13564456  0.78477035    -0.02100
C1879       C  0.92320367  0.10510944  0.89143067    -0.08700
C1880       C  0.93557633  0.11798410  0.86879150     0.07500
C1881       C  0.94153383  0.14611817  0.87054308    -0.02500
C1882       C  0.93695171  0.16035184  0.89499215    -0.07000
C1883       C  0.92729206  0.14704777  0.91874408     0.06600
C1884       C  0.91905161  0.11930082  0.91630502    -0.02000
Br1885     Br  0.90500855  0.09866137  0.94662086    -0.01700
H1886       H  0.91866575  0.08339967  0.89047704     0.10500
H1887       H  0.94269207  0.18178230  0.89586307     0.08500
Br1888     Br  0.95811502  0.16573467  0.84079450    -0.02100
C1889       C  0.12434128  0.61074500  0.07255549    -0.08700
C1890       C  0.14874578  0.61467249  0.08757710     0.07500
C1891       C  0.14687858  0.62429479  0.11469335    -0.02500
C1892       C  0.12105477  0.62818214  0.12681542    -0.07000
C1893       C  0.09659436  0.62275573  0.11231656     0.06600
C1894       C  0.09848015  0.61478290  0.08457578    -0.02000
Br1895     Br  0.06663612  0.60549014  0.06328052    -0.01700
H1896       H  0.12539442  0.60291782  0.05179339     0.10500
H1897       H  0.12008189  0.63398285  0.14823920     0.08500
Br1898     Br  0.17889393  0.62886379  0.13705327    -0.02100
C1899       C  0.18261617  0.66484207  0.06437068    -0.08700
C1900       C  0.20328897  0.64627443  0.07190043     0.07500
C1901       C  0.22819661  0.65686159  0.08260032    -0.02500
C1902       C  0.23309715  0.68508437  0.08254060    -0.07000
C1903       C  0.21243694  0.70334421  0.07497286     0.06600
C1904       C  0.18649704  0.69305881  0.06741644    -0.02000
Br1905     Br  0.15566719  0.71675189  0.06173693    -0.01700
H1906       H  0.16312979  0.65743365  0.05669760     0.10500
H1907       H  0.25232978  0.69301807  0.09045006     0.08500
Br1908     Br  0.25401292  0.63491326  0.10233710    -0.02100
C1909       C  0.15366516  0.74302978  0.15547806    -0.08700
C1910       C  0.16370897  0.72198646  0.17245842     0.07500
C1911       C  0.18828858  0.70878105  0.16468700    -0.02500
C1912       C  0.20196051  0.71666786  0.14047240    -0.07000
C1913       C  0.19178798  0.73782420  0.12368873     0.06600
C1914       C  0.16738721  0.75105519  0.13161243    -0.02000
Br1915     Br  0.15117602  0.77985468  0.11021138    -0.01700
H1916       H  0.13500185  0.75368303  0.16091478     0.10500
H1917       H  0.22098141  0.70664022  0.13513480     0.08500
Br1918     Br  0.20379822  0.67941013  0.18567761    -0.02100
C1919       C  0.28809031  0.59008832  0.03156939    -0.08700
C1920       C  0.28574009  0.60200008  0.00527675     0.07500
C1921       C  0.26070639  0.61550938  0.99898473    -0.02500
C1922       C  0.23950520  0.61683805  0.01846168    -0.07000
C1923       C  0.24136561  0.60294782  0.04350371     0.06600
C1924       C  0.26601859  0.58931276  0.04988612    -0.02000
Br1925     Br  0.27008876  0.56748930  0.08245658    -0.01700
H1926       H  0.30673087  0.57946776  0.03730448     0.10500
H1927       H  0.22021073  0.62631276  0.01280643     0.08500
Br1928     Br  0.25062385  0.62775021  0.96332223    -0.02100
C1929       C  0.36901569  0.61216112  0.91685534    -0.08700
C1930       C  0.36960841  0.61045142  0.94548268     0.07500
C1931       C  0.39455643  0.61594207  0.95924406    -0.02500
C1932       C  0.41882185  0.62037433  0.94422310    -0.07000
C1933       C  0.41851436  0.61986792  0.91538994     0.06600
C1934       C  0.39285501  0.61764292  0.90188246    -0.02000
Br1935     Br  0.38879185  0.62231621  0.86294859    -0.01700
H1936       H  0.35023099  0.60799059  0.90584918     0.10500
H1937       H  0.43810986  0.62265273  0.95508544     0.08500
Br1938     Br  0.39648833  0.61624154  0.99852373    -0.02100
C1939       C  0.25731882  0.72762638  0.99005406    -0.08700
C1940       C  0.28335022  0.74000640  0.98971332     0.07500
C1941       C  0.29266070  0.75314047  0.01376416    -0.02500
C1942       C  0.27678046  0.75253961  0.03765181    -0.07000
C1943       C  0.24998124  0.74169257  0.03777473     0.06600
C1944       C  0.24020296  0.72948404  0.01323912    -0.02000
Br1945     Br  0.20248197  0.72049824  0.00750061    -0.01700
H1946       H  0.24909725  0.71910815  0.97121007     0.10500
H1947       H  0.28456157  0.76293467  0.05571647     0.08500
Br1948     Br  0.32506487  0.77561388  0.01427516    -0.02100
C1949       C  0.30333513  0.67785609  0.93357825    -0.08700
C1950       C  0.31333502  0.69746568  0.95211718     0.07500
C1951       C  0.32780908  0.68854523  0.97556155    -0.02500
C1952       C  0.32921554  0.66066142  0.98174819    -0.07000
C1953       C  0.31845168  0.64124731  0.96365363     0.06600
C1954       C  0.30700698  0.64994277  0.93854477    -0.02000
Br1955     Br  0.29579204  0.62450857  0.91058279    -0.01700
H1956       H  0.29302178  0.68431621  0.91498543     0.10500
H1957       H  0.34020308  0.65390959  0.99985867     0.08500
Br1958     Br  0.35013371  0.71259979  0.99694738    -0.02100
C1959       C  0.35595320  0.71964540  0.89908643    -0.08700
C1960       C  0.32826280  0.72721822  0.89750643     0.07500
C1961       C  0.31533089  0.72744269  0.87153583    -0.02500
C1962       C  0.33053626  0.72235569  0.84764538    -0.07000
C1963       C  0.35884580  0.71732214  0.84900958     0.06600
C1964       C  0.37126006  0.71482969  0.87517836    -0.02000
Br1965     Br  0.40925347  0.70546020  0.87940360    -0.01700
H1966       H  0.36612999  0.71905094  0.91886604     0.10500
H1967       H  0.32053132  0.72413716  0.82785655     0.08500
Br1968     Br  0.27701780  0.73545900  0.86762203    -0.02100
C1969       C  0.63047631  0.72138232  0.19702960    -0.08700
C1970       C  0.63294580  0.74892352  0.20485221     0.07500
C1971       C  0.65921339  0.76133733  0.20399370    -0.02500
C1972       C  0.68254234  0.74557953  0.19808495    -0.07000
C1973       C  0.68028275  0.71736482  0.19309205     0.06600
C1974       C  0.65378558  0.70564976  0.19118605    -0.02000
Br1975     Br  0.64834981  0.66791052  0.18152685    -0.01700
H1976       H  0.61055405  0.71152209  0.19717220     0.10500
H1977       H  0.70263705  0.75504711  0.19926315     0.08500
Br1978     Br  0.66454333  0.79962838  0.21137376    -0.02100
C1979       C  0.57499534  0.75910095  0.13088372    -0.08700
C1980       C  0.55612171  0.73750558  0.12858816     0.07500
C1981       C  0.54702135  0.72423737  0.15249004    -0.02500
C1982       C  0.55693986  0.73274470  0.17803534    -0.07000
C1983       C  0.57435304  0.75551843  0.18034015     0.06600
C1984       C  0.58346354  0.76870840  0.15647021    -0.02000
Br1985     Br  0.60702571  0.80010833  0.15782152    -0.01700
H1986       H  0.58376036  0.76806670  0.11267010     0.10500
H1987       H  0.55128223  0.72139145  0.19609614     0.08500
Br1988     Br  0.52043847  0.69527988  0.15142255    -0.02100
C1989       C  0.55366056  0.65560272  0.10227222    -0.08700
C1990       C  0.56751942  0.68088020  0.10098242     0.07500
C1991       C  0.59572698  0.68157679  0.10731341    -0.02500
C1992       C  0.60956391  0.65724428  0.11360373    -0.07000
C1993       C  0.59609011  0.63169277  0.11333593     0.06600
C1994       C  0.56750074  0.63120554  0.10854805    -0.02000
Br1995     Br  0.54651710  0.59794213  0.10711373    -0.01700
H1996       H  0.53200821  0.65468829  0.09722772     0.10500
H1997       H  0.63150273  0.65813589  0.11713853     0.08500
Br1998     Br  0.61750003  0.71410058  0.10385745    -0.02100
C1999       C  0.48988531  0.78659952  0.22520940    -0.08700
C2000       C  0.48720484  0.81521152  0.22352322     0.07500
C2001       C  0.51132285  0.83113851  0.22135395    -0.02500
C2002       C  0.53695679  0.81835194  0.21889836    -0.07000
C2003       C  0.53967153  0.78981448  0.22128734     0.06600
C2004       C  0.51575602  0.77403103  0.22545026    -0.02000
Br2005     Br  0.51715151  0.73661035  0.23715341    -0.01700
H2006       H  0.47181925  0.77413608  0.22880912     0.10500
H2007       H  0.55524473  0.83097332  0.21774689     0.08500
Br2008     Br  0.51168018  0.86981581  0.22776856    -0.02100
C2009       C  0.39548996  0.88218522  0.20070449    -0.08700
C2010       C  0.39311327  0.85626446  0.21281168     0.07500
C2011       C  0.36667573  0.84439032  0.21501337    -0.02500
C2012       C  0.34332861  0.85907362  0.20652185    -0.07000
C2013       C  0.34568509  0.88572096  0.19592230     0.06600
C2014       C  0.37229197  0.89678081  0.19216759    -0.02000
Br2015     Br  0.37856403  0.93178215  0.17534053    -0.01700
H2016       H  0.41543929  0.89175366  0.19884474     0.10500
H2017       H  0.32319139  0.85011605  0.20942369     0.08500
Br2018     Br  0.36116165  0.80815520  0.22931511    -0.02100
C2019       C  0.47670882  0.79910280  0.08826782    -0.08700
C2020       C  0.49275694  0.82294768  0.08994180     0.07500
C2021       C  0.52137326  0.82037500  0.09258363    -0.02500
C2022       C  0.53362183  0.79448581  0.09150463    -0.07000
C2023       C  0.51772502  0.77052070  0.08965385     0.06600
C2024       C  0.48887076  0.77308474  0.08879010    -0.02000
Br2025     Br  0.46517881  0.74166997  0.08688148    -0.01700
H2026       H  0.45479111  0.80062253  0.08509306     0.10500
H2027       H  0.55563718  0.79351561  0.09026305     0.08500
Br2028     Br  0.54467602  0.85192101  0.09608650    -0.02100
C2029       C  0.44293998  0.83749976  0.13490115    -0.08700
C2030       C  0.45941645  0.86027375  0.12863005     0.07500
C2031       C  0.46995175  0.87639573  0.15017551    -0.02500
C2032       C  0.46341252  0.86988986  0.17725751    -0.07000
C2033       C  0.44818679  0.84637976  0.18351494     0.06600
C2034       C  0.43760921  0.83027162  0.16210417    -0.02000
Br2035     Br  0.41590579  0.79833259  0.16926093    -0.01700
H2036       H  0.43403063  0.82543461  0.11857651     0.10500
H2037       H  0.46997596  0.88340356  0.19349281     0.08500
Br2038     Br  0.49500837  0.90606062  0.14407289    -0.02100
C2039       C  0.45692887  0.93974903  0.09488285    -0.08700
C2040       C  0.44459189  0.91369190  0.09586282     0.07500
C2041       C  0.41646161  0.91183135  0.10188483    -0.02500
C2042       C  0.40131035  0.93565696  0.10667000    -0.07000
C2043       C  0.41341658  0.96186045  0.10527428     0.06600
C2044       C  0.44176946  0.96368668  0.09961025    -0.02000
Br2045     Br  0.46051739  0.99793776  0.09473293    -0.01700
H2046       H  0.47839375  0.94152360  0.08942785     0.10500
H2047       H  0.37952965  0.93364962  0.11052272     0.08500
Br2048     Br  0.39676141  0.87783060  0.10015197    -0.02100
C2049       C  0.42605408  0.58057357  0.41259150    -0.08700
C2050       C  0.43344003  0.59073942  0.38661034     0.07500
C2051       C  0.44192045  0.61827009  0.38470259    -0.02500
C2052       C  0.44265614  0.63488338  0.40823287    -0.07000
C2053       C  0.43609622  0.62458789  0.43448269     0.06600
C2054       C  0.42739321  0.59693312  0.43630346    -0.02000
Br2055     Br  0.42030713  0.57871501  0.47044363    -0.01700
H2056       H  0.42039067  0.55919414  0.41465482     0.10500
H2057       H  0.44963393  0.65583194  0.40602401     0.08500
Br2058     Br  0.45683552  0.63319915  0.35154062    -0.11700
C2059       C  0.41101504  0.60507434  0.30169262    -0.08700
C2060       C  0.40714571  0.59100337  0.32658586     0.07500
C2061       C  0.38080266  0.59134331  0.33871166    -0.02500
C2062       C  0.35924642  0.60497876  0.32568215    -0.07000
C2063       C  0.36233213  0.61490617  0.29900299     0.06600
C2064       C  0.38859999  0.61596464  0.28736469    -0.02000
Br2065     Br  0.39412766  0.63038525  0.25129329    -0.01700
H2066       H  0.43109117  0.60539745  0.29226283     0.10500
H2067       H  0.33906046  0.60484301  0.33490431     0.08500
Br2068     Br  0.37106206  0.56919644  0.36968198    -0.02100
C2069       C  0.35550448  0.68815417  0.29244061    -0.08700
C2070       C  0.33434988  0.67050424  0.30067646     0.07500
C2071       C  0.32006956  0.67606298  0.32501624    -0.02500
C2072       C  0.32642363  0.69948242  0.34027304    -0.07000
C2073       C  0.34718689  0.71771587  0.33188020     0.06600
C2074       C  0.36218161  0.71151710  0.30790942    -0.02000
Br2075     Br  0.39315329  0.73283283  0.29632130    -0.01700
H2076       H  0.36681633  0.68379747  0.27387712     0.10500
H2077       H  0.31480018  0.70354981  0.35871242     0.08500
Br2078     Br  0.29198385  0.65193964  0.33842774    -0.02100
C2079       C  0.32247946  0.53349190  0.23622272    -0.08700
C2080       C  0.32735562  0.51706373  0.25933872     0.07500
C2081       C  0.33139928  0.52984216  0.28486523    -0.02500
C2082       C  0.32975544  0.55834208  0.28707079    -0.07000
C2083       C  0.32568464  0.57509727  0.26398476     0.06600
C2084       C  0.32196917  0.56218693  0.23822676    -0.02000
Br2085     Br  0.31728808  0.58241408  0.20474710    -0.01700
H2086       H  0.31844641  0.52401635  0.21656469     0.10500
H2087       H  0.33021502  0.56698569  0.30728921     0.08500
Br2088     Br  0.33899218  0.50928489  0.31754611    -0.02100
C2089       C  0.35130241  0.40562984  0.22297906    -0.08700
C2090       C  0.32835693  0.42280016  0.22126247     0.07500
C2091       C  0.30799425  0.41733364  0.20152087    -0.02500
C2092       C  0.31040560  0.39463896  0.18431682    -0.07000
C2093       C  0.33301191  0.37688249  0.18618054     0.06600
C2094       C  0.35382423  0.38278887  0.20563309    -0.02000
Br2095     Br  0.38677920  0.36160775  0.20861176    -0.01700
H2096       H  0.36715780  0.40982886  0.23801837     0.10500
H2097       H  0.29418013  0.39071091  0.16960452     0.08500
Br2098     Br  0.27658396  0.44059994  0.19694434    -0.02100
C2099       C  0.46818686  0.53841719  0.25078833    -0.08700
C2100       C  0.44430045  0.53760005  0.23463282     0.07500
C2101       C  0.41927919  0.54456675  0.24729448    -0.02500
C2102       C  0.41786145  0.54820764  0.27594902    -0.07000
C2103       C  0.44184012  0.54865544  0.29214907     0.06600
C2104       C  0.46728778  0.54490649  0.27876067    -0.02000
Br2105     Br  0.50189477  0.55101620  0.29679851    -0.01700
H2106       H  0.48795286  0.53472892  0.24141446     0.10500
H2107       H  0.39809576  0.55182482  0.28532385     0.08500
Br2108     Br  0.38804865  0.55435823  0.22590494    -0.02100
C2109       C  0.41096126  0.48332424  0.22404577    -0.08700
C2110       C  0.40925336  0.49706132  0.19878282     0.07500
C2111       C  0.38344114  0.49870037  0.18545299    -0.02500
C2112       C  0.36004595  0.48785996  0.19811682    -0.07000
C2113       C  0.36165791  0.47661613  0.22444291     0.06600
C2114       C  0.38737611  0.47377542  0.23715361    -0.02000
Br2115     Br  0.39073265  0.45903374  0.27341211    -0.01700
H2116       H  0.43054873  0.48173598  0.23445361     0.10500
H2117       H  0.34020772  0.48996605  0.18830234     0.08500
Br2118     Br  0.37758197  0.51978007  0.15281809    -0.02100
C2119       C  0.43868641  0.44868289  0.11820747    -0.08700
C2120       C  0.43538587  0.46062845  0.09204607     0.07500
C2121       C  0.43275321  0.48945087  0.09056163    -0.02500
C2122       C  0.43426986  0.50531897  0.11454678    -0.07000
C2123       C  0.43824928  0.49339808  0.14052795     0.06600
C2124       C  0.44041177  0.46466213  0.14215073    -0.02000
Br2125     Br  0.44950737  0.44631075  0.17572411    -0.01700
H2126       H  0.44111571  0.42670965  0.12000071     0.10500
H2127       H  0.43334014  0.52742741  0.11279639     0.08500
Br2128     Br  0.43033248  0.50916539  0.05659456    -0.02100
C2129       C  0.35885807  0.21543740  0.29591259    -0.08700
C2130       C  0.34277130  0.22373951  0.31829112     0.07500
C2131       C  0.35217303  0.24572068  0.33463701    -0.02500
C2132       C  0.37721511  0.25867967  0.32846175    -0.07000
C2133       C  0.39336833  0.25002362  0.30624465     0.06600
C2134       C  0.38375448  0.22826655  0.28979600    -0.02000
Br2135     Br  0.40428723  0.21417642  0.25935926    -0.01700
H2136       H  0.35209885  0.19862282  0.28304448     0.10500
H2137       H  0.38388877  0.27578932  0.34091727     0.08500
Br2138     Br  0.33271504  0.25779517  0.36650779    -0.02100
C2139       C  0.45450852  0.22454895  0.37673706    -0.08700
C2140       C  0.44837845  0.24208426  0.39870342     0.07500
C2141       C  0.43609898  0.26758323  0.39281439    -0.02500
C2142       C  0.43544088  0.27729283  0.36583483    -0.07000
C2143       C  0.44290021  0.26020538  0.34413506     0.06600
C2144       C  0.44985811  0.23279772  0.34967908    -0.02000
Br2145     Br  0.45356814  0.20621612  0.32094782    -0.01700
H2146       H  0.46253895  0.20426842  0.38060175     0.10500
H2147       H  0.42709335  0.29737207  0.36148923     0.08500
Br2148     Br  0.41389903  0.28637573  0.41894549    -0.02100
C2149       C  0.40715659  0.18921311  0.41361733    -0.08700
C2150       C  0.43358687  0.18505018  0.42431165     0.07500
C2151       C  0.44426231  0.15814467  0.42431571    -0.02500
C2152       C  0.42794974  0.13599392  0.41577592    -0.07000
C2153       C  0.40082178  0.13982697  0.40678762     0.06600
C2154       C  0.39090218  0.16704574  0.40468866    -0.02000
Br2155     Br  0.35598991  0.17566380  0.38859690    -0.01700
H2156       H  0.39882303  0.20974840  0.41280892     0.10500
H2157       H  0.43637342  0.11552491  0.41697469     0.08500
Br2158     Br  0.48138066  0.15038365  0.43501715    -0.02100
C2159       C  0.52364173  0.30316361  0.43860402    -0.08700
C2160       C  0.50981753  0.32634650  0.44877138     0.07500
C2161       C  0.48174052  0.32339420  0.45540428    -0.02500
C2162       C  0.46897865  0.29770367  0.45398504    -0.07000
C2163       C  0.48238583  0.27485057  0.44306400     0.06600
C2164       C  0.51008441  0.27781015  0.43530176    -0.02000
Br2165     Br  0.53096596  0.24698264  0.42292802    -0.01700
H2166       H  0.54535426  0.30401080  0.43474700     0.10500
H2167       H  0.44856747  0.29548859  0.46231490     0.08500
Br2168     Br  0.45937651  0.35375669  0.46649337    -0.02100
C2169       C  0.55253548  0.43993216  0.44323130    -0.08700
C2170       C  0.56496416  0.41414684  0.44606022     0.07500
C2171       C  0.59347621  0.41216530  0.44253030    -0.02500
C2172       C  0.60886516  0.43546826  0.43584262    -0.07000
C2173       C  0.59673523  0.46158382  0.43329777     0.06600
C2174       C  0.56797141  0.46350401  0.43694820    -0.02000
Br2175     Br  0.54847418  0.49756229  0.43653596    -0.01700
H2176       H  0.53068776  0.44187453  0.44673396     0.10500
H2177       H  0.63079306  0.43310014  0.43344893     0.08500
Br2178     Br  0.61303169  0.37893297  0.44986482    -0.02100
C2179       C  0.53283435  0.30088223  0.32480396    -0.08700
C2180       C  0.53514963  0.32797974  0.31582021     0.07500
C2181       C  0.51149419  0.34179611  0.30700886    -0.02500
C2182       C  0.48629342  0.32796077  0.30599806    -0.07000
C2183       C  0.48415998  0.29986355  0.31245503     0.06600
C2184       C  0.50792684  0.28655690  0.32268256    -0.02000
Br2185     Br  0.51021933  0.24830869  0.33003159    -0.01700
H2186       H  0.55111646  0.29009742  0.33139779     0.10500
H2187       H  0.46857925  0.33875547  0.29802941     0.08500
Br2188     Br  0.51306862  0.37878484  0.29386518    -0.02100
C2189       C  0.54933945  0.37469825  0.36458518    -0.08700
C2190       C  0.57014404  0.35557863  0.35960423     0.07500
C2191       C  0.58066595  0.34001377  0.38142859    -0.02500
C2192       C  0.57074774  0.34415894  0.40789769    -0.07000
C2193       C  0.54965833  0.36292916  0.41286403     0.06600
C2194       C  0.53894905  0.37834789  0.39099137    -0.02000
Br2195     Br  0.50987344  0.40410444  0.39628285    -0.01700
H2196       H  0.54109284  0.38663057  0.34780714     0.10500
H2197       H  0.57976177  0.33292849  0.42478176     0.08500
Br2198     Br  0.60734035  0.31188623  0.37582603    -0.02100
C2199       C  0.62379085  0.39538867  0.34582948    -0.08700
C2200       C  0.62748216  0.36932797  0.33443618     0.07500
C2201       C  0.65423235  0.35831205  0.33356192    -0.02500
C2202       C  0.67676580  0.37398543  0.34240666    -0.07000
C2203       C  0.67334145  0.40090775  0.35194872     0.06600
C2204       C  0.64628252  0.41116202  0.35453020    -0.02000
Br2205     Br  0.63824534  0.44628555  0.37015945    -0.01700
H2206       H  0.60338311  0.40404864  0.34691807     0.10500
H2207       H  0.69717346  0.36544977  0.34068047     0.08500
Br2208     Br  0.66117218  0.32186855  0.32059018    -0.02100
C2209       C  0.15649309  0.39025674  0.39778818    -0.08700
C2210       C  0.18488656  0.38667307  0.39961910     0.07500
C2211       C  0.20071585  0.39151549  0.37588446    -0.02500
C2212       C  0.18786868  0.39733031  0.35060606    -0.07000
C2213       C  0.15912534  0.39931289  0.34855033     0.06600
C2214       C  0.14377383  0.39795420  0.37320417    -0.02000
Br2215     Br  0.10566257  0.40769608  0.37579746    -0.01700
H2216       H  0.14366357  0.38571855  0.41506326     0.10500
H2217       H  0.20036535  0.39907811  0.33237184     0.08500
Br2218     Br  0.23994908  0.38890593  0.37688687    -0.02100
C2219       C  0.17278633  0.44490445  0.48129765    -0.08700
C2220       C  0.19595389  0.46190082  0.48448022     0.07500
C2221       C  0.22175058  0.44916759  0.48104379    -0.02500
C2222       C  0.22355028  0.42591774  0.46440596    -0.07000
C2223       C  0.20011583  0.41031698  0.45840176     0.06600
C2224       C  0.17464958  0.41935739  0.46854325    -0.02000
Br2225     Br  0.14224301  0.39709156  0.46823631    -0.01700
H2226       H  0.15302392  0.45131225  0.48881608     0.10500
H2227       H  0.24353096  0.41701516  0.46069457     0.08500
Br2228     Br  0.24602454  0.44560057  0.51196404    -0.02100
C2229       C  0.11824605  0.50071622  0.47965152    -0.08700
C2230       C  0.14369221  0.49645849  0.46682952     0.07500
C2231       C  0.14387482  0.48577906  0.44000504    -0.02500
C2232       C  0.11911147  0.47906382  0.42686808    -0.07000
C2233       C  0.09349010  0.48365877  0.43940898     0.06600
C2234       C  0.09334899  0.49466457  0.46627141    -0.02000
Br2235     Br  0.06029064  0.50492354  0.48485886    -0.01700
H2236       H  0.11773689  0.50968078  0.49997188     0.10500
H2237       H  0.11997175  0.47088187  0.40624985     0.08500
Br2238     Br  0.17718646  0.48207995  0.41948669    -0.02100
C2239       C  0.26344706  0.36279524  0.48582551    -0.08700
C2240       C  0.23491522  0.36654968  0.48763308     0.07500
C2241       C  0.22334694  0.37085798  0.51376501    -0.02500
C2242       C  0.24019068  0.37154389  0.53716744    -0.07000
C2243       C  0.26853517  0.36686271  0.53539407     0.06600
C2244       C  0.28009133  0.36230257  0.50935381    -0.02000
Br2245     Br  0.31759290  0.35159596  0.50497698    -0.01700
H2246       H  0.27266103  0.35876416  0.46604376     0.10500
H2247       H  0.23081099  0.37377319  0.55716228     0.08500
Br2248     Br  0.18462709  0.37159173  0.51958796    -0.02100
C2249       C  0.30861261  0.38008441  0.64831668    -0.08700
C2250       C  0.32228147  0.37612988  0.62328291     0.07500
C2251       C  0.35114828  0.37675339  0.62324135    -0.02500
C2252       C  0.36566788  0.37980288  0.64800340    -0.07000
C2253       C  0.35206870  0.38186477  0.67342798     0.06600
C2254       C  0.32306985  0.38299300  0.67317618    -0.02000
Br2255     Br  0.30163539  0.38468720  0.70603682    -0.01700
H2256       H  0.28640940  0.37907184  0.64877873     0.10500
H2257       H  0.38786697  0.37895310  0.64750914     0.08500
Br2258     Br  0.37178199  0.36987298  0.59057224    -0.02100
C2259       C  0.28869971  0.50246545  0.49845585    -0.08700
C2260       C  0.29396396  0.50631543  0.52657182     0.07500
C2261       C  0.27197183  0.51310897  0.54394230    -0.02500
C2262       C  0.24505136  0.51303505  0.53378216    -0.07000
C2263       C  0.23951777  0.50781853  0.50595825     0.06600
C2264       C  0.26182709  0.50408519  0.48793882    -0.02000
Br2265     Br  0.25655283  0.50163210  0.44901674    -0.01700
H2266       H  0.30561654  0.49893878  0.48455348     0.10500
H2267       H  0.22835848  0.51809952  0.54748320     0.08500
Br2268     Br  0.27785948  0.52576171  0.58078423    -0.02100
C2269       C  0.30347076  0.45441545  0.57159815    -0.08700
C2270       C  0.32553139  0.45836948  0.55356734     0.07500
C2271       C  0.33762959  0.43540194  0.54116174    -0.02500
C2272       C  0.32921472  0.40907549  0.54869467    -0.07000
C2273       C  0.30804265  0.40520463  0.56767875     0.06600
C2274       C  0.29461459  0.42809157  0.57858647    -0.02000
Br2275     Br  0.26420874  0.42413539  0.60304873    -0.01700
H2276       H  0.29387895  0.47171495  0.58124399     0.10500
H2277       H  0.33951338  0.39158060  0.54002514     0.08500
Br2278     Br  0.36447977  0.43908581  0.51277536    -0.02100
C2279       C  0.41080921  0.47853118  0.55484548    -0.08700
C2280       C  0.38498892  0.47899651  0.56769248     0.07500
C2281       C  0.38279588  0.46768567  0.59419422    -0.02500
C2282       C  0.40578231  0.45594728  0.60688288    -0.07000
C2283       C  0.43199710  0.45662818  0.59471884     0.06600
C2284       C  0.43418005  0.46788390  0.56804305    -0.02000
Br2285     Br  0.46846662  0.47260207  0.54941934    -0.01700
H2286       H  0.41307529  0.48770137  0.53473693     0.10500
H2287       H  0.40333610  0.44768036  0.62734209     0.08500
Br2288     Br  0.35067515  0.47182808  0.61635025    -0.02100
C2289       C  0.91957431  0.67407538  0.92031850    -0.08700
C2290       C  0.94763817  0.67043625  0.92519676     0.07500
C2291       C  0.95869731  0.64382230  0.92327645    -0.02500
C2292       C  0.94140484  0.62119648  0.91867935    -0.07000
C2293       C  0.91285928  0.62451303  0.91651113     0.06600
C2294       C  0.90215903  0.65151932  0.91621757    -0.02000
Br2295     Br  0.86383859  0.65925898  0.91122926    -0.01700
H2296       H  0.91082641  0.69441743  0.92153191     0.10500
H2297       H  0.95013719  0.60081825  0.91867398     0.08500
Br2298     Br  0.99724331  0.63735199  0.92784205    -0.02100
C2299       C  0.93445987  0.75606935  0.86706712    -0.08700
C2300       C  0.94490290  0.74201436  0.84447538     0.07500
C2301       C  0.96183790  0.71905574  0.84874413    -0.02500
C2302       C  0.96994624  0.71203519  0.87543548    -0.07000
C2303       C  0.96005782  0.72667569  0.89811208     0.06600
C2304       C  0.94115664  0.74800668  0.89369729    -0.02000
Br2305     Br  0.92051925  0.76379468  0.92280232    -0.01700
H2306       H  0.92001133  0.77259135  0.86384595     0.10500
H2307       H  0.98333734  0.69465427  0.87864254     0.08500
Br2308     Br  0.97205714  0.69531504  0.81917516    -0.02100
C2309       C  0.89085285  0.70243165  0.82535125    -0.08700
C2310       C  0.88765126  0.73038241  0.82002474     0.07500
C2311       C  0.86166408  0.74233667  0.82419649    -0.02500
C2312       C  0.83902189  0.72595261  0.83119477    -0.07000
C2313       C  0.84161498  0.69743962  0.83421871     0.06600
C2314       C  0.86837156  0.68596060  0.83251642    -0.02000
Br2315     Br  0.87648780  0.64812610  0.83973881    -0.01700
H2316       H  0.91073304  0.69302349  0.82270105     0.10500
H2317       H  0.81907769  0.73548359  0.83295978     0.08500
Br2318     Br  0.85603237  0.78105153  0.82053975    -0.02100
C2319       C  0.00461749  0.82215557  0.79958658    -0.08700
C2320       C  0.02854122  0.80639475  0.80142661     0.07500
C2321       C  0.02613768  0.77804057  0.80605016    -0.02500
C2322       C  0.00012873  0.76573298  0.80747695    -0.07000
C2323       C  0.97609217  0.78129930  0.80472718     0.06600
C2324       C  0.97864460  0.81002924  0.80195635    -0.02000
Br2325     Br  0.94732235  0.83379914  0.80119307    -0.01700
H2326       H  0.00606317  0.84390056  0.79542432     0.10500
H2327       H  0.99893420  0.74379050  0.80903324     0.08500
Br2328     Br  0.05791353  0.75506463  0.80830375    -0.02100
C2329       C  0.14670145  0.83687606  0.80027243    -0.08700
C2330       C  0.12199832  0.85068912  0.80568492     0.07500
C2331       C  0.12334533  0.87768728  0.81586673    -0.02500
C2332       C  0.14897357  0.89050128  0.81948761    -0.07000
C2333       C  0.17363159  0.87687770  0.81331124     0.06600
C2334       C  0.17226362  0.84952865  0.80420304    -0.02000
Br2335     Br  0.20431730  0.82959380  0.79340092    -0.01700
H2336       H  0.14604773  0.81630829  0.79193559     0.10500
H2337       H  0.14960729  0.91175909  0.82584116     0.08500
Br2338     Br  0.09106055  0.89924622  0.82166122    -0.02100
C2339       C  0.02021742  0.76206849  0.92687505    -0.08700
C2340       C  0.99466762  0.76101262  0.93998032     0.07500
C2341       C  0.98558084  0.78450049  0.95400846    -0.02500
C2342       C  0.00038704  0.80902703  0.95216190    -0.07000
C2343       C  0.02650300  0.81013394  0.93988784     0.06600
C2344       C  0.03686377  0.78561916  0.92837307    -0.02000
Br2345     Br  0.07496497  0.77985496  0.92153026    -0.01700
H2346       H  0.02864569  0.74342240  0.91831485     0.10500
H2347       H  0.99238597  0.82689528  0.96256620     0.08500
Br2348     Br  0.95577926  0.78339355  0.97964105    -0.02100
C2349       C  0.04516681  0.84974965  0.84883261    -0.08700
C2350       C  0.06902003  0.83598859  0.84042079     0.07500
C2351       C  0.08786250  0.82719017  0.86051331    -0.02500
C2352       C  0.08361654  0.83409971  0.88796318    -0.07000
C2353       C  0.05902507  0.84617549  0.89635722     0.06600
C2354       C  0.03965418  0.85397939  0.87660591    -0.02000
Br2355     Br  0.00573491  0.87066682  0.88690921    -0.01700
H2356       H  0.03083900  0.85737618  0.83377873     0.10500
H2357       H  0.09901958  0.82890159  0.90311485     0.08500
Br2358     Br  0.11741072  0.80269404  0.85246793    -0.02100
C2359       C  0.10009130  0.89977874  0.91369382    -0.08700
C2360       C  0.07331709  0.90101494  0.92398590     0.07500
C2361       C  0.06030549  0.92679668  0.92553147    -0.02500
C2362       C  0.07496519  0.95084799  0.91954209    -0.07000
C2363       C  0.10270603  0.94978305  0.91199331     0.06600
C2364       C  0.11471481  0.92379019  0.90751400    -0.02000
Br2365     Br  0.15113578  0.91972467  0.89324762    -0.01700
H2366       H  0.11033107  0.88021017  0.91201817     0.10500
H2367       H  0.06512500  0.97047915  0.92255895     0.08500
Br2368     Br  0.02276648  0.93032843  0.93667814    -0.02100
C2369       C  0.63864545  0.96460370  0.93043250    -0.08700
C2370       C  0.63314541  0.97544548  0.95650911     0.07500
C2371       C  0.60530178  0.97816513  0.96443991    -0.02500
C2372       C  0.58396404  0.97138637  0.94610914    -0.07000
C2373       C  0.58953554  0.96205554  0.91949583     0.06600
C2374       C  0.61730450  0.95791849  0.91211463    -0.02000
Br2375     Br  0.62743672  0.94262727  0.87740278    -0.01700
H2376       H  0.65968351  0.96215294  0.92382114     0.10500
H2377       H  0.56289598  0.97450419  0.95235478     0.08500
Br2378     Br  0.59492764  0.99051779  0.00030715    -0.02100
C2379       C  0.67879127  0.89705070  0.96548593    -0.08700
C2380       C  0.70357219  0.89358941  0.95147251     0.07500
C2381       C  0.72091865  0.91609695  0.94740440    -0.02500
C2382       C  0.71277060  0.94196682  0.95616505    -0.07000
C2383       C  0.68838213  0.94566528  0.97087412     0.06600
C2384       C  0.67171244  0.92261839  0.97629458    -0.02000
Br2385     Br  0.64103263  0.92420440  0.00071330    -0.01700
H2386       H  0.66580757  0.87944416  0.96936158     0.10500
H2387       H  0.72561401  0.95913350  0.95139375     0.08500
Br2388     Br  0.75617431  0.91209545  0.93059866    -0.02100
C2389       C  0.69675347  0.88841079  0.88160437    -0.08700
C2390       C  0.68840028  0.86514846  0.89644534     0.07500
C2391       C  0.66499151  0.85073254  0.88743984    -0.02500
C2392       C  0.65109032  0.85892262  0.86365560    -0.07000
C2393       C  0.65979189  0.88166043  0.84816230     0.06600
C2394       C  0.68267210  0.89679286  0.85774615    -0.02000
Br2395     Br  0.69460481  0.92990604  0.84024563    -0.01700
H2396       H  0.71464702  0.89979672  0.88816582     0.10500
H2397       H  0.63337029  0.84715698  0.85713376     0.08500
Br2398     Br  0.65054697  0.82007878  0.90745987    -0.02100
C2399       C  0.77581961  0.84834549  0.01991187    -0.08700
C2400       C  0.75799845  0.85534731  0.04130121     0.07500
C2401       C  0.73079176  0.86254758  0.03480814    -0.02500
C2402       C  0.72154925  0.86150260  0.00753338    -0.07000
C2403       C  0.73926818  0.85416587  0.98606003     0.06600
C2404       C  0.76696611  0.84849119  0.99251781    -0.02000
Br2405     Br  0.79374829  0.84084756  0.96480039    -0.01700
H2406       H  0.79646785  0.84163575  0.02454354     0.10500
H2407       H  0.70007481  0.86502506  0.00348896     0.08500
Br2408     Br  0.70516479  0.87259582  0.06279985    -0.02100
C2409       C  0.79134100  0.86224573  0.16021462    -0.08700
C2410       C  0.80337800  0.85986799  0.13415883     0.07500
C2411       C  0.83210832  0.86160519  0.13208739    -0.02500
C2412       C  0.84811524  0.86550478  0.15570171    -0.07000
C2413       C  0.83625111  0.86722302  0.18196947     0.06600
C2414       C  0.80730118  0.86612631  0.18393615    -0.02000
Br2415     Br  0.78800409  0.86689290  0.21817065    -0.01700
H2416       H  0.76928423  0.86030991  0.16219909     0.10500
H2417       H  0.87022207  0.86601214  0.15356803     0.08500
Br2418     Br  0.85090217  0.85492694  0.09826559    -0.02100
C2419       C  0.77424301  0.99097108  0.00445352    -0.08700
C2420       C  0.77680336  0.98604934  0.03282182     0.07500
C2421       C  0.75229654  0.98268984  0.04798043    -0.02500
C2422       C  0.72675157  0.98107099  0.03443121    -0.07000
C2423       C  0.72434468  0.98604069  0.00613478     0.06600
C2424       C  0.74844414  0.99274192  0.99158711    -0.02000
Br2425     Br  0.74710799  0.00958668  0.95598355    -0.01700
H2426       H  0.79237393  0.99604135  0.99267497     0.10500
H2427       H  0.70827615  0.97874632  0.04652293     0.08500
Br2428     Br  0.75105374  0.98735839  0.08690477    -0.02100
C2429       C  0.79901286  0.94057660  0.08976446    -0.08700
C2430       C  0.81388201  0.94474285  0.06566402     0.07500
C2431       C  0.81995304  0.92227781  0.04885498    -0.02500
C2432       C  0.81074840  0.89609086  0.05620500    -0.07000
C2433       C  0.79409818  0.89219969  0.07939852     0.06600
C2434       C  0.78770932  0.91501892  0.09585952    -0.02000
Br2435     Br  0.76092900  0.91344877  0.12454008    -0.01700
H2436       H  0.79542573  0.95760514  0.10340733     0.10500
H2437       H  0.81659924  0.87883708  0.04375629     0.08500
Br2438     Br  0.84021458  0.92683106  0.01560704    -0.02100
C2439       C  0.87173571  0.95940747  0.09924137    -0.08700
C2440       C  0.87209838  0.97230468  0.07347321     0.07500
C2441       C  0.89800737  0.97697166  0.06110721    -0.02500
C2442       C  0.92247953  0.97184407  0.07561840    -0.07000
C2443       C  0.92202897  0.96142396  0.10243129     0.06600
C2444       C  0.89629290  0.95359812  0.11345680    -0.02000
Br2445     Br  0.89350994  0.93409203  0.14752084    -0.01700
H2446       H  0.85235202  0.95493539  0.10903096     0.10500
H2447       H  0.94190828  0.97717419  0.06628149     0.08500
Br2448     Br  0.90134239  0.99012590  0.02414578    -0.02100
loop_ 
_geom_bond_atom_site_label_1 
_geom_bond_atom_site_label_2 
_geom_bond_distance 
_geom_bond_site_symmetry_2 
_ccdc_geom_bond_type 
N1            C5   1.368       .  A
N1            C2   1.366       .  A
N1         C2430   1.435       .  S
C2            C3   1.384   1_565  A
C2         C2440   1.507       .  S
C3            C4   1.377       .  A
C3            H6   1.082       .  S
C4            C5   1.382   1_545  A
C4            H7   1.082       .  S
C5         C2420   1.506       .  S
N8           C12   1.362       .  A
N8            N9   1.323       .  A
N8          Cu16   2.153       .  S
N9           C10   1.339       .  A
N9          Cu15   2.055       .  S
C10          C11   1.378       .  A
C10          H13   1.082       .  S
C11          C12   1.403       .  A
C11         C662   1.489       .  S
C12          H14   1.082       .  S
Cu15         N18   2.056   1_565  S
Cu16         N26   2.155   1_455  S
Cu17         N19   2.075   1_665  S
Cu17         N25   2.078       .  S
N18          C22   1.343       .  A
N18          N19   1.318       .  A
N19          C20   1.347   1_455  A
C20          C21   1.385   1_655  A
C20          H23   1.082       .  S
C21          C22   1.382       .  A
C21        C1013   1.470       .  S
C22          H24   1.082       .  S
N25          C29   1.345       .  A
N25          N26   1.327       .  A
N26          C27   1.360       .  A
C27          C28   1.401       .  A
C27          H30   1.082       .  S
C28          C29   1.382       .  A
C28        C2443   1.503       .  S
C29          H31   1.082       .  S
N32          C36   1.361       .  A
N32          C33   1.363       .  A
N32        C2433   1.443       .  S
C33          C34   1.382       .  A
C33        C2410   1.491       .  S
C34          C35   1.377       .  A
C34          H37   1.082       .  S
C35          C36   1.382       .  A
C35          H38   1.082       .  S
C36        C2400   1.486       .  S
N39          C43   1.357       .  A
N39          N40   1.323       .  A
N39         Cu47   2.112       .  S
N40          C41   1.339       .  A
N40         Cu46   2.068       .  S
C41          C42   1.380       .  A
C41          H44   1.082       .  S
C42          C43   1.394       .  A
C42         C972   1.480       .  S
C43          H45   1.082       .  S
Cu46         N49   2.069       .  S
Cu47         N57   2.114       .  S
Cu48         N50   2.073       .  S
Cu48         N56   2.074       .  S
N49          C53   1.345       .  A
N49          N50   1.319       .  A
N50          C51   1.347       .  A
C51          C52   1.387       .  A
C51          H54   1.082       .  S
C52          C53   1.385       .  A
C52         C827   1.475       .  S
C53          H55   1.082       .  S
N56          C60   1.341       .  A
N56          N57   1.324       .  A
N57          C58   1.353       .  A
C58          C59   1.396       .  A
C58          H61   1.080       .  S
C59          C60   1.383       .  A
C59        C2413   1.496       .  S
C60          H62   1.082       .  S
N63          C67   1.359       .  A
N63          C64   1.358       .  A
N63        C2380   1.430       .  S
C64          C65   1.383       .  A
C64        C2390   1.492       .  S
C65          C66   1.380       .  A
C65          H68   1.082       .  S
C66          C67   1.384       .  A
C66          H69   1.082       .  S
C67        C2403   1.496       .  S
N70          C74   1.354       .  A
N70          N71   1.325       .  A
N70         Cu78   2.135       .  S
N71          C72   1.344       .  A
N71         Cu77   2.067       .  S
C72          C73   1.379       .  A
C72          H75   1.082       .  S
C73          C74   1.396       .  A
C73        C1158   1.480       .  S
C74          H76   1.082       .  S
Cu77         N80   2.068       .  S
Cu78         N88   2.134       .  S
Cu79         N81   2.062       .  S
Cu79         N87   2.063       .  S
N80          C84   1.346       .  A
N80          N81   1.319       .  A
N81          C82   1.343       .  A
C82          C83   1.384       .  A
C82          H85   1.082       .  S
C83          C84   1.385       .  A
C83         C765   1.472       .  S
C84          H86   1.082       .  S
N87          C91   1.341       .  A
N87          N88   1.323       .  A
N88          C89   1.357       .  A
C89          C90   1.400       .  A
C89          H92   1.081       .  S
C90          C91   1.381       .  A
C90        C2393   1.497       .  S
C91          H93   1.082       .  S
N94          C98   1.366       .  A
N94          C95   1.367       .  A
N94        C2383   1.443       .  S
C95          C96   1.385   1_565  A
C95        C2370   1.505       .  S
C96          C97   1.378       .  A
C96          H99   1.082       .  S
C97          C98   1.381   1_545  A
C97         H100   1.082   1_556  S
C98        C2423   1.498   1_556  S
N101        C105   1.363       .  A
N101        N102   1.323       .  A
N101       Cu109   2.151       .  S
N102        C103   1.336       .  A
N102       Cu108   2.054       .  S
C103        C104   1.379       .  A
C103        H106   1.082       .  S
C104        C105   1.403       .  A
C104        C166   1.491       .  S
C105        H107   1.082       .  S
Cu108       N111   2.058       .  S
Cu109       N119   2.153       .  S
Cu110       N112   2.058   1_565  S
Cu110       N118   2.062       .  S
N111        C115   1.345   1_565  A
N111        N112   1.317   1_565  A
N112        C113   1.343       .  A
C113        C114   1.382       .  A
C113        H116   1.082       .  S
C114        C115   1.383       .  A
C114       C1075   1.464       .  S
C115        H117   1.082       .  S
N118        C122   1.341       .  A
N118        N119   1.326       .  A
N119        C120   1.360       .  A
C120        C121   1.401       .  A
C120        H123   1.082       .  S
C121        C122   1.379       .  A
C121       C2373   1.499       .  S
C122        H124   1.082       .  S
N125        C129   1.365       .  A
N125        C126   1.359       .  A
N125       C2353   1.433       .  S
C126        C127   1.379       .  A
C126       C2360   1.490       .  S
C127        C128   1.375       .  A
C127        H130   1.082       .  S
C128        C129   1.388       .  A
C128        H131   1.082       .  S
C129       C2343   1.504       .  S
N132        C136   1.361       .  A
N132        N133   1.321       .  A
N132       Cu140   2.133       .  S
N133        C134   1.335       .  A
N133       Cu139   2.045       .  S
C134        C135   1.376       .  A
C134        H137   1.082       .  S
C135        C136   1.401       .  A
C135       C1282   1.484       .  S
C136        H138   1.082       .  S
Cu139       N142   2.047       .  S
Cu140       N150   2.136       .  S
Cu141       N143   2.071       .  S
Cu141       N149   2.074       .  S
N142        C146   1.342       .  A
N142        N143   1.317       .  A
N143        C144   1.347       .  A
C144        C145   1.387   1_556  A
C144        H147   1.082   1_556  S
C145        C146   1.380   1_554  A
C145        C641   1.468       .  S
C146        H148   1.082   1_556  S
N149        C153   1.342   1_545  A
N149        N150   1.327       .  A
N150        C151   1.356       .  A
C151        C152   1.396   1_545  A
C151        H154   1.082       .  S
C152        C153   1.380       .  A
C152       C2363   1.492       .  S
C153        H155   1.082       .  S
N156        C160   1.360       .  A
N156        C157   1.364       .  A
N156       C2350   1.441       .  S
C157        C158   1.384       .  A
C157       C2330   1.493       .  S
C158        C159   1.376       .  A
C158        H161   1.082       .  S
C159        C160   1.380       .  A
C159        H162   1.082       .  S
C160       C2320   1.484       .  S
N163        C167   1.363       .  A
N163        N164   1.321       .  A
N163       Cu171   2.138       .  S
N164        C165   1.336       .  A
N164       Cu170   2.054       .  S
C165        C166   1.379       .  A
C165        H168   1.082       .  S
C166        C167   1.402       .  A
C167        H169   1.082       .  S
Cu170       N173   2.054       .  S
Cu171       N181   2.141       .  S
Cu172       N174   2.071       .  S
Cu172       N180   2.074       .  S
N173        C177   1.341   1_565  A
N173        N174   1.317       .  A
N174        C175   1.349   1_565  A
C175        C176   1.388       .  A
C175        H178   1.082       .  S
C176        C177   1.381       .  A
C176       C1385   1.471       .  S
C177        H179   1.082       .  S
N180        C184   1.342       .  A
N180        N181   1.328       .  A
N181        C182   1.356       .  A
C182        C183   1.395       .  A
C182        H185   1.082       .  S
C183        C184   1.376       .  A
C183       C2333   1.488       .  S
C184        H186   1.082       .  S
N187        C191   1.361       .  A
N187        C188   1.359       .  A
N187       C2300   1.434       .  S
C188        C189   1.381       .  A
C188       C2310   1.490       .  S
C189        C190   1.376       .  A
C189        H192   1.082       .  S
C190        C191   1.384       .  A
C190        H193   1.082       .  S
C191       C2323   1.493       .  S
N194        C198   1.362       .  A
N194        N195   1.324       .  A
N194       Cu202   2.143       .  S
N195        C196   1.336       .  A
N195       Cu201   2.057       .  S
C196        C197   1.377       .  A
C196        H199   1.082       .  S
C197        C198   1.401       .  A
C197        C786   1.487       .  S
C198        H200   1.082       .  S
Cu201       N204   2.058       .  S
Cu202       N212   2.145       .  S
Cu203       N205   2.048       .  S
Cu203       N211   2.049       .  S
N204        C208   1.344       .  A
N204        N205   1.316       .  A
N205        C206   1.343       .  A
C206        C207   1.382       .  A
C206        H209   1.082       .  S
C207        C208   1.385       .  A
C207       C1478   1.466       .  S
C208        H210   1.082       .  S
N211        C215   1.338       .  A
N211        N212   1.324       .  A
N212        C213   1.358       .  A
C213        C214   1.404       .  A
C213        H216   1.082       .  S
C214        C215   1.378       .  A
C214       C2313   1.499       .  S
C215        H217   1.080       .  S
N218        C222   1.362       .  A
N218        C219   1.359       .  A
N218       C2303   1.440       .  S
C219        C220   1.383       .  A
C219       C2290   1.487       .  S
C220        C221   1.377       .  A
C220        H223   1.082       .  S
C221        C222   1.382       .  A
C221        H224   1.082       .  S
C222       C2340   1.486       .  S
N225        C229   1.362       .  A
N225        N226   1.322       .  A
N225       Cu233   2.139       .  S
N226        C227   1.336       .  A
N226       Cu232   2.057       .  S
C227        C228   1.379       .  A
C227        H230   1.082       .  S
C228        C229   1.402       .  A
C228        C910   1.489       .  S
C229        H231   1.082       .  S
Cu232       N235   2.060       .  S
Cu233       N243   2.141       .  S
Cu234       N236   2.061       .  S
Cu234       N242   2.064       .  S
N235        C239   1.343       .  A
N235        N236   1.317       .  A
N236        C237   1.346       .  A
C237        C238   1.384   1_556  A
C237        H240   1.082   1_556  S
C238        C239   1.382   1_554  A
C238        C703   1.466       .  S
C239        H241   1.082       .  S
N242        C246   1.340       .  A
N242        N243   1.326       .  A
N243        C244   1.358       .  A
C244        C245   1.399       .  A
C244        H247   1.082       .  S
C245        C246   1.378       .  A
C245       C2293   1.493       .  S
C246        H248   1.081       .  S
N249        C253   1.360       .  A
N249        C250   1.364       .  A
N249       C2270   1.440       .  S
C250        C251   1.385       .  A
C250       C2280   1.498       .  S
C251        C252   1.379       .  A
C251        H254   1.082       .  S
C252        C253   1.381       .  A
C252        H255   1.082       .  S
C253       C2260   1.486       .  S
N256        C260   1.356       .  A
N256        N257   1.324       .  A
N256       Cu264   2.128       .  S
N257        C258   1.341       .  A
N257       Cu263   2.069       .  S
C258        C259   1.381       .  A
C258        H261   1.082       .  S
C259        C260   1.396       .  A
C259       C1468   1.481       .  S
C260        H262   1.082       .  S
Cu263       N266   2.069       .  S
Cu264       N274   2.129       .  S
Cu265       N267   2.062       .  S
Cu265       N273   2.063       .  S
N266        C270   1.345       .  A
N266        N267   1.318       .  A
N267        C268   1.346       .  A
C268        C269   1.383       .  A
C268        H271   1.082       .  S
C269        C270   1.383       .  A
C269        C796   1.470       .  S
C270        H272   1.082       .  S
N273        C277   1.339       .  A
N273        N274   1.324       .  A
N274        C275   1.356       .  A
C275        C276   1.401       .  A
C275        H278   1.080       .  S
C276        C277   1.382       .  A
C276       C2283   1.503       .  S
C277        H279   1.082       .  S
N280        C284   1.359       .  A
N280        C281   1.361       .  A
N280       C2273   1.435       .  S
C281        C282   1.382       .  A
C281       C2250   1.492       .  S
C282        C283   1.377       .  A
C282        H285   1.082       .  S
C283        C284   1.381       .  A
C283        H286   1.082       .  S
C284       C2243   1.487       .  S
N287        C291   1.360       .  A
N287        N288   1.324       .  A
N287       Cu295   2.138       .  S
N288        C289   1.339       .  A
N288       Cu294   2.061       .  S
C289        C290   1.378       .  A
C289        H292   1.082       .  S
C290        C291   1.398       .  A
C290        C507   1.486       .  S
C291        H293   1.082       .  S
Cu294       N297   2.061       .  S
Cu295       N305   2.139       .  S
Cu296       N298   2.071       .  S
Cu296       N304   2.072       .  S
N297        C301   1.344       .  A
N297        N298   1.318       .  A
N298        C299   1.346       .  A
C299        C300   1.386       .  A
C299        H302   1.082       .  S
C300        C301   1.383       .  A
C300       C1106   1.473       .  S
C301        H303   1.082       .  S
N304        C308   1.342       .  A
N304        N305   1.325       .  A
N305        C306   1.358       .  A
C306        C307   1.401       .  A
C306        H309   1.081       .  S
C307        C308   1.381       .  A
C307       C2253   1.501       .  S
C308        H310   1.082       .  S
N311        C315   1.375       .  A
N311        C312   1.378       .  A
N311       C2220   1.468       .  S
C312        C313   1.379       .  A
C312       C2230   1.496       .  S
C313        C314   1.366       .  A
C313        H316   1.082       .  S
C314        C315   1.380       .  A
C314        H317   1.083       .  S
C315       C2263   1.484       .  S
N318        C322   1.353       .  A
N318        N319   1.324       .  A
N318       Cu326   2.121       .  S
N319        C320   1.343       .  A
N319       Cu325   2.066       .  S
C320        C321   1.379       .  A
C320        H323   1.082       .  S
C321        C322   1.393       .  A
C321        C383   1.476       .  S
C322        H324   1.082       .  S
Cu325       N328   2.067       .  S
Cu326       N336   2.121   1_655  S
Cu327       N329   2.070       .  S
Cu327       N335   2.071       .  S
N328        C332   1.346       .  A
N328        N329   1.320   1_655  A
N329        C330   1.345       .  A
C330        C331   1.384   1_455  A
C330        H333   1.082       .  S
C331        C332   1.384       .  A
C331        C858   1.472       .  S
C332        H334   1.082       .  S
N335        C339   1.342       .  A
N335        N336   1.323       .  A
N336        C337   1.355       .  A
C337        C338   1.398       .  A
C337        H340   1.081       .  S
C338        C339   1.384       .  A
C338       C2233   1.500       .  S
C339        H341   1.082       .  S
N342        C346   1.364       .  A
N342        C343   1.365       .  A
N342       C2223   1.439       .  S
C343        C344   1.383       .  A
C343       C2210   1.494       .  S
C344        C345   1.376       .  A
C344        H347   1.082       .  S
C345        C346   1.382       .  A
C345        H348   1.082       .  S
C346       C2240   1.496       .  S
N349        C353   1.356       .  A
N349        N350   1.325       .  A
N349       Cu357   2.136       .  S
N350        C351   1.343       .  A
N350       Cu356   2.068       .  S
C351        C352   1.378       .  A
C351        H354   1.082       .  S
C352        C353   1.396       .  A
C352       C1251   1.481       .  S
C353        H355   1.082       .  S
Cu356       N359   2.070       .  S
Cu357       N367   2.134       .  S
Cu358       N360   2.058       .  S
Cu358       N366   2.058       .  S
N359        C363   1.346       .  A
N359        N360   1.318       .  A
N360        C361   1.344       .  A
C361        C362   1.383       .  A
C361        H364   1.082       .  S
C362        C363   1.386       .  A
C362       C1044   1.471   1_455  S
C363        H365   1.082       .  S
N366        C370   1.338       .  A
N366        N367   1.322       .  A
N367        C368   1.359       .  A
C368        C369   1.403       .  A
C368        H371   1.082       .  S
C369        C370   1.382       .  A
C369       C2213   1.502       .  S
C370        H372   1.079       .  S
N373        C377   1.352       .  A
N373        C374   1.358       .  A
N373       C2190   1.433       .  S
C374        C375   1.385       .  A
C374       C2200   1.489       .  S
C375        C376   1.380       .  A
C375        H378   1.082       .  S
C376        C377   1.381       .  A
C376        H379   1.082       .  S
C377       C2180   1.481       .  S
N380        C384   1.352       .  A
N380        N381   1.324       .  A
N380       Cu388   2.117       .  S
N381        C382   1.343       .  A
N381       Cu387   2.069       .  S
C382        C383   1.380       .  A
C382        H385   1.082       .  S
C383        C384   1.392       .  A
C384        H386   1.082       .  S
Cu387       N390   2.070       .  S
Cu388       N398   2.116       .  S
Cu389       N391   2.066       .  S
Cu389       N397   2.067       .  S
N390        C394   1.346       .  A
N390        N391   1.320       .  A
N391        C392   1.344       .  A
C392        C393   1.384       .  A
C392        H395   1.082       .  S
C393        C394   1.385       .  A
C393        C734   1.472       .  S
C394        H396   1.082       .  S
N397        C401   1.342       .  A
N397        N398   1.323       .  A
N398        C399   1.354       .  A
C399        C400   1.396       .  A
C399        H402   1.082       .  S
C400        C401   1.383       .  A
C400       C2203   1.494       .  S
C401        H403   1.081       .  S
N404        C408   1.363       .  A
N404        C405   1.360       .  A
N404       C2193   1.433       .  S
C405        C406   1.379       .  A
C405       C2170   1.490       .  S
C406        C407   1.379       .  A
C406        H409   1.082       .  S
C407        C408   1.387       .  A
C407        H410   1.082       .  S
C408       C2160   1.504       .  S
N411        C415   1.360       .  A
N411        N412   1.323       .  A
N411       Cu419   2.131       .  S
N412        C413   1.336       .  A
N412       Cu418   2.055       .  S
C413        C414   1.377       .  A
C413        H416   1.082       .  S
C414        C415   1.399       .  A
C414       C1127   1.484       .  S
C415        H417   1.082       .  S
Cu418       N421   2.056       .  S
Cu419       N429   2.134       .  S
Cu420       N422   2.066       .  S
Cu420       N428   2.069       .  S
N421        C425   1.342       .  A
N421        N422   1.317       .  A
N422        C423   1.347       .  A
C423        C424   1.385       .  A
C423        H426   1.082       .  S
C424        C425   1.382       .  A
C424       C1447   1.468       .  S
C425        H427   1.082       .  S
N428        C432   1.340       .  A
N428        N429   1.325       .  A
N429        C430   1.356       .  A
C430        C431   1.401       .  A
C430        H433   1.080       .  S
C431        C432   1.382       .  A
C431       C2173   1.503       .  S
C432        H434   1.082       .  S
N435        C439   1.368       .  A
N435        C436   1.366       .  A
N435       C2140   1.445       .  S
C436        C437   1.384       .  A
C436       C2150   1.498       .  S
C437        C438   1.375       .  A
C437        H440   1.082       .  S
C438        C439   1.380       .  A
C438        H441   1.082       .  S
C439       C2163   1.494       .  S
N442        C446   1.352       .  A
N442        N443   1.324       .  A
N442       Cu450   2.115   1_565  S
N443        C444   1.343       .  A
N443       Cu449   2.068       .  S
C444        C445   1.380       .  A
C444        H447   1.082       .  S
C445        C446   1.391       .  A
C445        C569   1.474       .  S
C446        H448   1.082       .  S
Cu449       N452   2.070   1_565  S
Cu450       N460   2.116       .  S
Cu451       N453   2.073       .  S
Cu451       N459   2.075       .  S
N452        C456   1.347       .  A
N452        N453   1.321       .  A
N453        C454   1.344       .  A
C454        C455   1.384       .  A
C454        H457   1.082       .  S
C455        C456   1.385       .  A
C455       C1416   1.474       .  S
C456        H458   1.082   1_545  S
N459        C463   1.345       .  A
N459        N460   1.322       .  A
N460        C461   1.352       .  A
C461        C462   1.396       .  A
C461        H464   1.082       .  S
C462        C463   1.386       .  A
C462       C2153   1.499       .  S
C463        H465   1.081       .  S
N466        C470   1.364       .  A
N466        C467   1.360       .  A
N466       C2143   1.434       .  S
C467        C468   1.380       .  A
C467       C2133   1.489       .  S
C468        C469   1.375       .  A
C468        H471   1.082       .  S
C469        C470   1.386       .  A
C469        H472   1.082       .  S
C470       C2183   1.501       .  S
N473        C477   1.356       .  A
N473        N474   1.323       .  A
N473       Cu481   2.122       .  S
N474        C475   1.338       .  A
N474       Cu480   2.064       .  S
C475        C476   1.381       .  A
C475        H478   1.083       .  S
C476        C477   1.396       .  A
C476       C1003   1.479       .  S
C477        H479   1.082       .  S
Cu480       N483   2.064       .  S
Cu481       N491   2.123       .  S
Cu482       N484   2.058       .  S
Cu482       N490   2.060       .  S
N483        C487   1.345       .  A
N483        N484   1.318       .  A
N484        C485   1.344       .  A
C485        C486   1.382       .  A
C485        H488   1.082       .  S
C486        C487   1.384       .  A
C486        C672   1.467       .  S
C487        H489   1.082       .  S
N490        C494   1.339       .  A
N490        N491   1.325       .  A
N491        C492   1.355       .  A
C492        C493   1.396       .  A
C492        H495   1.081       .  S
C493        C494   1.378       .  A
C493       C2130   1.489       .  S
C494        H496   1.082       .  S
N497        C501   1.370       .  A
N497        C498   1.367       .  A
N497       C2110   1.445       .  S
C498        C499   1.382       .  A
C498       C2123   1.497       .  S
C499        C500   1.375       .  A
C499        H502   1.082       .  S
C500        C501   1.383       .  A
C500        H503   1.082       .  S
C501       C2100   1.505       .  S
N504        C508   1.358       .  A
N504        N505   1.324       .  A
N504       Cu512   2.123       .  S
N505        C506   1.341       .  A
N505       Cu511   2.075       .  S
C506        C507   1.382       .  A
C506        H509   1.082       .  S
C507        C508   1.396       .  A
C508        H510   1.082       .  S
Cu511       N514   2.075       .  S
Cu512       N522   2.124   1_556  S
Cu513       N515   2.072       .  S
Cu513       N521   2.074       .  S
N514        C518   1.346       .  A
N514        N515   1.320   1_556  A
N515        C516   1.346       .  A
C516        C517   1.385   1_554  A
C516        H519   1.082       .  S
C517        C518   1.386       .  A
C517       C1199   1.476       .  S
C518        H520   1.082       .  S
N521        C525   1.344       .  A
N521        N522   1.323       .  A
N522        C523   1.354       .  A
C523        C524   1.398       .  A
C523        H526   1.080       .  S
C524        C525   1.384       .  A
C524       C2120   1.501       .  S
C525        H527   1.082       .  S
N528        C532   1.356       .  A
N528        C529   1.353       .  A
N528       C2113   1.435       .  S
C529        C530   1.383       .  A
C529       C2090   1.477       .  S
C530        C531   1.378       .  A
C530        H533   1.082       .  S
C531        C532   1.383       .  A
C531        H534   1.082       .  S
C532       C2080   1.484       .  S
N535        C539   1.355       .  A
N535        N536   1.321       .  A
N535       Cu543   2.106       .  S
N536        C537   1.338       .  A
N536       Cu542   2.055       .  S
C537        C538   1.379       .  A
C537        H540   1.082       .  S
C538        C539   1.394       .  A
C538        C631   1.475       .  S
C539        H541   1.082       .  S
Cu542       N545   2.057       .  S
Cu543       N553   2.108       .  S
Cu544       N546   2.071       .  S
Cu544       N552   2.074       .  S
N545        C549   1.342       .  A
N545        N546   1.319       .  A
N546        C547   1.347       .  A
C547        C548   1.385       .  A
C547        H550   1.082       .  S
C548        C549   1.380       .  A
C548       C1292   1.467       .  S
C549        H551   1.082       .  S
N552        C556   1.342       .  A
N552        N553   1.325       .  A
N553        C554   1.351       .  A
C554        C555   1.391       .  A
C554        H557   1.081       .  S
C555        C556   1.383       .  A
C555       C2093   1.489       .  S
C556        H558   1.082       .  S
N559        C563   1.363       .  A
N559        C560   1.353       .  A
N559       C2063   1.437       .  S
C560        C561   1.380       .  A
C560       C2070   1.478       .  S
C561        C562   1.379       .  A
C561        H564   1.082       .  S
C562        C563   1.386       .  A
C562        H565   1.082       .  S
C563       C2083   1.498       .  S
N566        C570   1.352       .  A
N566        N567   1.324       .  A
N566       Cu574   2.108       .  S
N567        C568   1.343       .  A
N567       Cu573   2.073       .  S
C568        C569   1.380       .  A
C568        H571   1.082       .  S
C569        C570   1.390       .  A
C570        H572   1.082       .  S
Cu573       N576   2.073       .  S
Cu574       N584   2.107       .  S
Cu575       N577   2.061       .  S
Cu575       N583   2.062       .  S
N576        C580   1.345       .  A
N576        N577   1.320       .  A
N577        C578   1.345       .  A
C578        C579   1.383       .  A
C578        H581   1.082       .  S
C579        C580   1.386       .  A
C579       C1354   1.472       .  S
C580        H582   1.082       .  S
N583        C587   1.341       .  A
N583        N584   1.323       .  A
N584        C585   1.352       .  A
C585        C586   1.394       .  A
C585        H588   1.081       .  S
C586        C587   1.382       .  A
C586       C2073   1.488       .  S
C587        H589   1.082       .  S
N590        C594   1.369       .  A
N590        C591   1.368       .  A
N590       C2060   1.446       .  S
C591        C592   1.381       .  A
C591       C2050   1.498       .  S
C592        C593   1.373       .  A
C592        H595   1.082       .  S
C593        C594   1.384       .  A
C593        H596   1.082       .  S
C594       C2103   1.505       .  S
N597        C601   1.359       .  A
N597        N598   1.323       .  A
N597       Cu605   2.126       .  S
N598        C599   1.340       .  A
N598       Cu604   2.066       .  S
C599        C600   1.379       .  A
C599        H602   1.082       .  S
C600        C601   1.397       .  A
C600        C755   1.485       .  S
C601        H603   1.082       .  S
Cu604       N607   2.067       .  S
Cu605       N615   2.128       .  S
Cu606       N608   2.080       .  S
Cu606       N614   2.083       .  S
N607        C611   1.344       .  A
N607        N608   1.319       .  A
N608        C609   1.349       .  A
C609        C610   1.387       .  A
C609        H612   1.082       .  S
C610        C611   1.384       .  A
C610       C1168   1.477       .  S
C611        H613   1.082       .  S
N614        C618   1.344       .  A
N614        N615   1.324       .  A
N615        C616   1.355       .  A
C616        C617   1.399       .  A
C616        H619   1.080       .  S
C617        C618   1.387       .  A
C617       C2053   1.506       .  S
C618        H620   1.082       .  S
N621        C625   1.358       .  A
N621        C622   1.361       .  A
N621       C2030   1.439       .  S
C622        C623   1.382       .  A
C622       C2040   1.487       .  S
C623        C624   1.376       .  A
C623        H626   1.082       .  S
C624        C625   1.381       .  A
C624        H627   1.082       .  S
C625       C2020   1.484       .  S
N628        C632   1.354       .  A
N628        N629   1.324       .  A
N628       Cu636   2.114       .  S
N629        C630   1.339       .  A
N629       Cu635   2.069       .  S
C630        C631   1.380       .  A
C630        H633   1.082       .  S
C631        C632   1.393       .  A
C632        H634   1.082       .  S
Cu635       N638   2.071       .  S
Cu636       N646   2.114       .  S
Cu637       N639   2.053       .  S
Cu637       N645   2.055       .  S
N638        C642   1.345       .  A
N638        N639   1.318       .  A
N639        C640   1.344       .  A
C640        C641   1.381       .  A
C640        H643   1.082       .  S
C641        C642   1.386       .  A
C642        H644   1.082       .  S
N645        C649   1.339   1_545  A
N645        N646   1.323       .  A
N646        C647   1.354       .  A
C647        C648   1.397   1_545  A
C647        H650   1.081       .  S
C648        C649   1.380       .  A
C648       C2043   1.492       .  S
C649        H651   1.082       .  S
N652        C656   1.360       .  A
N652        C653   1.360       .  A
N652       C2033   1.435       .  S
C653        C654   1.384       .  A
C653       C2010   1.495       .  S
C654        C655   1.380       .  A
C654        H657   1.082       .  S
C655        C656   1.383       .  A
C655        H658   1.082       .  S
C656       C2000   1.493       .  S
N659        C663   1.360       .  A
N659        N660   1.323       .  A
N659       Cu667   2.147       .  S
N660        C661   1.340       .  A
N660       Cu666   2.064       .  S
C661        C662   1.381       .  A
C661        H664   1.082       .  S
C662        C663   1.403       .  A
C663        H665   1.082       .  S
Cu666       N669   2.067   1_565  S
Cu667       N677   2.146       .  S
Cu668       N670   2.053   1_565  S
Cu668       N676   2.054       .  S
N669        C673   1.345       .  A
N669        N670   1.317       .  A
N670        C671   1.344       .  A
C671        C672   1.382       .  A
C671        H674   1.082       .  S
C672        C673   1.384       .  A
C673        H675   1.082       .  S
N676        C680   1.339       .  A
N676        N677   1.325       .  A
N677        C678   1.359       .  A
C678        C679   1.400       .  A
C678        H681   1.082       .  S
C679        C680   1.376       .  A
C679       C2013   1.493       .  S
C680        H682   1.082       .  S
N683        C687   1.361       .  A
N683        C684   1.360       .  A
N683       C1980   1.436       .  S
C684        C685   1.383       .  A
C684       C1990   1.490       .  S
C685        C686   1.377       .  A
C685        H688   1.082       .  S
C686        C687   1.383       .  A
C686        H689   1.082       .  S
C687       C2023   1.492       .  S
N690        C694   1.354       .  A
N690        N691   1.323       .  A
N690       Cu698   2.118       .  S
N691        C692   1.339       .  A
N691       Cu697   2.059       .  S
C692        C693   1.379       .  A
C692        H695   1.082       .  S
C693        C694   1.394       .  A
C693       C1220   1.476       .  S
C694        H696   1.082       .  S
Cu697       N700   2.061       .  S
Cu698       N708   2.119       .  S
Cu699       N701   2.066       .  S
Cu699       N707   2.067       .  S
N700        C704   1.343       .  A
N700        N701   1.319       .  A
N701        C702   1.346       .  A
C702        C703   1.384       .  A
C702        H705   1.082       .  S
C703        C704   1.381       .  A
C704        H706   1.082       .  S
N707        C711   1.340       .  A
N707        N708   1.324       .  A
N708        C709   1.355       .  A
C709        C710   1.396       .  A
C709        H712   1.081       .  S
C710        C711   1.380       .  A
C710       C1993   1.492       .  S
C711        H713   1.082       .  S
N714        C718   1.360       .  A
N714        C715   1.360       .  A
N714       C1983   1.435       .  S
C715        C716   1.384       .  A
C715       C1970   1.494       .  S
C716        C717   1.378       .  A
C716        H719   1.082       .  S
C717        C718   1.382       .  A
C717        H720   1.082       .  S
C718       C2003   1.490       .  S
N721        C725   1.359       .  A
N721        N722   1.325       .  A
N721       Cu729   2.129       .  S
N722        C723   1.340       .  A
N722       Cu728   2.075       .  S
C723        C724   1.381       .  A
C723        H726   1.082       .  S
C724        C725   1.397       .  A
C724        C848   1.486       .  S
C725        H727   1.082       .  S
Cu728       N731   2.075       .  S
Cu729       N739   2.129       .  S
Cu730       N732   2.060       .  S
Cu730       N738   2.060       .  S
N731        C735   1.347       .  A
N731        N732   1.319       .  A
N732        C733   1.343       .  A
C733        C734   1.383       .  A
C733        H736   1.082       .  S
C734        C735   1.386       .  A
C735        H737   1.082       .  S
N738        C742   1.340       .  A
N738        N739   1.324       .  A
N739        C740   1.357       .  A
C740        C741   1.397       .  A
C740        H743   1.082       .  S
C741        C742   1.378       .  A
C741       C1973   1.489       .  S
C742        H744   1.082       .  S
N745        C749   1.364       .  A
N745        C746   1.362       .  A
N745       C1950   1.440       .  S
C746        C747   1.382       .  A
C746       C1960   1.493       .  S
C747        C748   1.377       .  A
C747        H750   1.082       .  S
C748        C749   1.382       .  A
C748        H751   1.082       .  S
C749       C1940   1.492       .  S
N752        C756   1.358       .  A
N752        N753   1.324       .  A
N752       Cu760   2.131       .  S
N753        C754   1.340       .  A
N753       Cu759   2.071       .  S
C754        C755   1.380       .  A
C754        H757   1.082       .  S
C755        C756   1.396       .  A
C756        H758   1.082       .  S
Cu759       N762   2.071       .  S
Cu760       N770   2.131       .  S
Cu761       N763   2.063       .  S
Cu761       N769   2.063       .  S
N762        C766   1.346       .  A
N762        N763   1.319       .  A
N763        C764   1.343       .  A
C764        C765   1.383       .  A
C764        H767   1.082       .  S
C765        C766   1.386       .  A
C766        H768   1.082       .  S
N769        C773   1.342       .  A
N769        N770   1.323       .  A
N770        C771   1.357       .  A
C771        C772   1.398       .  A
C771        H774   1.082       .  S
C772        C773   1.380       .  A
C772       C1963   1.492       .  S
C773        H775   1.082       .  S
N776        C780   1.367       .  A
N776        C777   1.359       .  A
N776       C1953   1.430       .  S
C777        C778   1.377       .  A
C777       C1930   1.491       .  S
C778        C779   1.377       .  A
C778        H781   1.082       .  S
C779        C780   1.391       .  A
C779        H782   1.082       .  S
C780       C1920   1.513   1_556  S
N783        C787   1.359       .  A
N783        N784   1.323       .  A
N783       Cu791   2.131       .  S
N784        C785   1.338       .  A
N784       Cu790   2.069       .  S
C785        C786   1.382       .  A
C785        H788   1.083       .  S
C786        C787   1.399       .  A
C787        H789   1.082       .  S
Cu790       N793   2.071       .  S
Cu791       N801   2.132       .  S
Cu792       N794   2.063       .  S
Cu792       N800   2.064       .  S
N793        C797   1.345       .  A
N793        N794   1.318       .  A
N794        C795   1.346       .  A
C795        C796   1.383       .  A
C795        H798   1.082       .  S
C796        C797   1.384       .  A
C797        H799   1.082       .  S
N800        C804   1.338       .  A
N800        N801   1.325       .  A
N801        C802   1.359       .  A
C802        C803   1.398       .  A
C802        H805   1.082       .  S
C803        C804   1.379       .  A
C803       C1933   1.493       .  S
C804        H806   1.082       .  S
N807        C811   1.366       .  A
N807        C808   1.362       .  A
N807       C1903   1.434       .  S
C808        C809   1.381       .  A
C808       C1913   1.496       .  S
C809        C810   1.376       .  A
C809        H812   1.082       .  S
C810        C811   1.387       .  A
C810        H813   1.082       .  S
C811       C1943   1.505       .  S
N814        C818   1.354       .  A
N814        N815   1.324       .  A
N814       Cu822   2.126       .  S
N815        C816   1.343       .  A
N815       Cu821   2.066       .  S
C816        C817   1.378       .  A
C816        H819   1.082       .  S
C817        C818   1.394       .  A
C817       C1313   1.477       .  S
C818        H820   1.082       .  S
Cu821       N824   2.068       .  S
Cu822       N832   2.125       .  S
Cu823       N825   2.071       .  S
Cu823       N831   2.071       .  S
N824        C828   1.345       .  A
N824        N825   1.319       .  A
N825        C826   1.346       .  A
C826        C827   1.385   1_455  A
C826        H829   1.082       .  S
C827        C828   1.385   1_655  A
C828        H830   1.082       .  S
N831        C835   1.342       .  A
N831        N832   1.323       .  A
N832        C833   1.356       .  A
C833        C834   1.398       .  A
C833        H836   1.081       .  S
C834        C835   1.384       .  A
C834       C1910   1.499       .  S
C835        H837   1.082       .  S
N838        C842   1.366       .  A
N838        C839   1.367       .  A
N838       C1900   1.448       .  S
C839        C840   1.381       .  A
C839       C1890   1.493       .  S
C840        C841   1.373       .  A
C840        H843   1.082       .  S
C841        C842   1.382       .  A
C841        H844   1.082       .  S
C842       C1923   1.491       .  S
N845        C849   1.360       .  A
N845        N846   1.324       .  A
N845       Cu853   2.135       .  S
N846        C847   1.339       .  A
N846       Cu852   2.068       .  S
C847        C848   1.379       .  A
C847        H850   1.082       .  S
C848        C849   1.398       .  A
C849        H851   1.082       .  S
Cu852       N855   2.070       .  S
Cu853       N863   2.135   1_655  S
Cu854       N856   2.066       .  S
Cu854       N862   2.067       .  S
N855        C859   1.346       .  A
N855        N856   1.319   1_655  A
N856        C857   1.344       .  A
C857        C858   1.384   1_455  A
C857        H860   1.082       .  S
C858        C859   1.385       .  A
C859        H861   1.082       .  S
N862        C866   1.342       .  A
N862        N863   1.325       .  A
N863        C864   1.358       .  A
C864        C865   1.398       .  A
C864        H867   1.082       .  S
C865        C866   1.378       .  A
C865       C1893   1.492       .  S
C866        H868   1.082       .  S
N869        C873   1.364       .  A
N869        C870   1.358       .  A
N869       C1870   1.430       .  S
C870        C871   1.379       .  A
C870       C1880   1.491       .  S
C871        C872   1.377       .  A
C871        H874   1.082       .  S
C872        C873   1.388       .  A
C872        H875   1.082       .  S
C873       C1860   1.507       .  S
N876        C880   1.360       .  A
N876        N877   1.326       .  A
N876       Cu884   2.139       .  S
N877        C878   1.340       .  A
N877       Cu883   2.071       .  S
C878        C879   1.378       .  A
C878        H881   1.082       .  S
C879        C880   1.398       .  A
C879       C1034   1.486       .  S
C880        H882   1.082       .  S
Cu883       N886   2.071   1_655  S
Cu884       N894   2.138   1_554  S
Cu885       N887   2.060   1_656  S
Cu885       N893   2.061       .  S
N886        C890   1.347       .  A
N886        N887   1.318       .  A
N887        C888   1.343       .  A
C888        C889   1.384       .  A
C888        H891   1.082   1_554  S
C889        C890   1.387       .  A
C889       C1261   1.474       .  S
C890        H892   1.082       .  S
N893        C897   1.338       .  A
N893        N894   1.323       .  A
N894        C895   1.360       .  A
C895        C896   1.403       .  A
C895        H898   1.081       .  S
C896        C897   1.381       .  A
C896       C1883   1.503       .  S
C897        H899   1.082       .  S
N900        C904   1.359       .  A
N900        C901   1.358       .  A
N900       C1873   1.433       .  S
C901        C902   1.383       .  A
C901       C1850   1.492       .  S
C902        C903   1.381       .  A
C902        H905   1.082       .  S
C903        C904   1.382       .  A
C903        H906   1.082       .  S
C904       C1840   1.490       .  S
N907        C911   1.362       .  A
N907        N908   1.323       .  A
N907       Cu915   2.140       .  S
N908        C909   1.336       .  A
N908       Cu914   2.060       .  S
C909        C910   1.379       .  A
C909        H912   1.082       .  S
C910        C911   1.401       .  A
C911        H913   1.082       .  S
Cu914       N917   2.062       .  S
Cu915       N925   2.143       .  S
Cu916       N918   2.066       .  S
Cu916       N924   2.069       .  S
N917        C921   1.344       .  A
N917        N918   1.317       .  A
N918        C919   1.346       .  A
C919        C920   1.385       .  A
C919        H922   1.082       .  S
C920        C921   1.384       .  A
C920       C1230   1.472   1_556  S
C921        H923   1.082       .  S
N924        C928   1.341       .  A
N924        N925   1.326       .  A
N925        C926   1.358       .  A
C926        C927   1.399       .  A
C926        H929   1.082       .  S
C927        C928   1.379       .  A
C927       C1853   1.496       .  S
C928        H930   1.082       .  S
N931        C935   1.361       .  A
N931        C932   1.360       .  A
N931       C1820   1.432       .  S
C932        C933   1.380       .  A
C932       C1830   1.489       .  S
C933        C934   1.377       .  A
C933        H936   1.082       .  S
C934        C935   1.386       .  A
C934        H937   1.082       .  S
C935       C1843   1.500   1_565  S
N938        C942   1.357       .  A
N938        N939   1.322       .  A
N938       Cu946   2.124       .  S
N939        C940   1.339       .  A
N939       Cu945   2.060       .  S
C940        C941   1.380       .  A
C940        H943   1.082       .  S
C941        C942   1.397       .  A
C941       C1437   1.481       .  S
C942        H944   1.082       .  S
Cu945       N948   2.060       .  S
Cu946       N956   2.126       .  S
Cu947       N949   2.073       .  S
Cu947       N955   2.074       .  S
N948        C952   1.343       .  A
N948        N949   1.319       .  A
N949        C950   1.348       .  A
C950        C951   1.386       .  A
C950        H953   1.082       .  S
C951        C952   1.381       .  A
C951       C1137   1.469       .  S
C952        H954   1.082       .  S
N955        C959   1.342       .  A
N955        N956   1.325       .  A
N956        C957   1.354       .  A
C957        C958   1.396       .  A
C957        H960   1.082       .  S
C958        C959   1.383       .  A
C958       C1833   1.498       .  S
C959        H961   1.080       .  S
N962        C966   1.361   1_565  A
N962        C963   1.360       .  A
N962       C1823   1.439       .  S
C963        C964   1.383   1_565  A
C963       C1810   1.491       .  S
C964        C965   1.377       .  A
C964        H967   1.082       .  S
C965        C966   1.381       .  A
C965        H968   1.082       .  S
C966       C1863   1.489       .  S
N969        C973   1.358       .  A
N969        N970   1.324       .  A
N969       Cu977   2.119       .  S
N970        C971   1.338       .  A
N970       Cu976   2.064       .  S
C971        C972   1.378       .  A
C971        H974   1.082       .  S
C972        C973   1.395       .  A
C973        H975   1.082       .  S
Cu976       N979   2.065   1_655  S
Cu977       N987   2.120       .  S
Cu978       N980   2.066       .  S
Cu978       N986   2.066       .  S
N979        C983   1.345       .  A
N979        N980   1.318   1_455  A
N980        C981   1.344   1_655  A
C981        C982   1.385       .  A
C981        H984   1.082       .  S
C982        C983   1.385       .  A
C982       C1323   1.473       .  S
C983        H985   1.082       .  S
N986        C990   1.341       .  A
N986        N987   1.324       .  A
N987        C988   1.355       .  A
C988        C989   1.395       .  A
C988        H991   1.082       .  S
C989        C990   1.379       .  A
C989       C1813   1.487       .  S
C990        H992   1.082       .  S
N993        C997   1.358       .  A
N993        C994   1.361       .  A
N993       C1790   1.442       .  S
C994        C995   1.384       .  A
C994       C1800   1.485       .  S
C995        C996   1.373       .  A
C995        H998   1.082       .  S
C996        C997   1.380       .  A
C996        H999   1.082       .  S
C997       C1780   1.477       .  S
N1000      C1004   1.357       .  A
N1000      N1001   1.322       .  A
N1000     Cu1008   2.121       .  S
N1001      C1002   1.337       .  A
N1001     Cu1007   2.057       .  S
C1002      C1003   1.379       .  A
C1002      H1005   1.082       .  S
C1003      C1004   1.397       .  A
C1004      H1006   1.082       .  S
Cu1007     N1010   2.061       .  S
Cu1008     N1018   2.122   1_455  S
Cu1009     N1011   2.063   1_655  S
Cu1009     N1017   2.065       .  S
N1010      C1014   1.343       .  A
N1010      N1011   1.318       .  A
N1011      C1012   1.346   1_455  A
C1012      C1013   1.384   1_655  A
C1012      H1015   1.082       .  S
C1013      C1014   1.383       .  A
C1014      H1016   1.082       .  S
N1017      C1021   1.341       .  A
N1017      N1018   1.325       .  A
N1018      C1019   1.352       .  A
C1019      C1020   1.396       .  A
C1019      H1022   1.082       .  S
C1020      C1021   1.380       .  A
C1020      C1803   1.490       .  S
C1021      H1023   1.081       .  S
N1024      C1028   1.365       .  A
N1024      C1025   1.362       .  A
N1024      C1793   1.440       .  S
C1025      C1026   1.383       .  A
C1025      C1773   1.493       .  S
C1026      C1027   1.375       .  A
C1026      H1029   1.082       .  S
C1027      C1028   1.382       .  A
C1027      H1030   1.082       .  S
C1028      C1760   1.492       .  S
N1031      C1035   1.359       .  A
N1031      N1032   1.323       .  A
N1031     Cu1039   2.134       .  S
N1032      C1033   1.341       .  A
N1032     Cu1038   2.068       .  S
C1033      C1034   1.381       .  A
C1033      H1036   1.082       .  S
C1034      C1035   1.398       .  A
C1035      H1037   1.082       .  S
Cu1038     N1041   2.068       .  S
Cu1039     N1049   2.135       .  S
Cu1040     N1042   2.068       .  S
Cu1040     N1048   2.069       .  S
N1041      C1045   1.345       .  A
N1041      N1042   1.319       .  A
N1042      C1043   1.345       .  A
C1043      C1044   1.385       .  A
C1043      H1046   1.082       .  S
C1044      C1045   1.384       .  A
C1045      H1047   1.082       .  S
N1048      C1052   1.343       .  A
N1048      N1049   1.324       .  A
N1049      C1050   1.356       .  A
C1050      C1051   1.399       .  A
C1050      H1053   1.082       .  S
C1051      C1052   1.382       .  A
C1051      C1770   1.499       .  S
C1052      H1054   1.081       .  S
N1055      C1059   1.353       .  A
N1055      C1056   1.353       .  A
N1055      C1743   1.430       .  S
C1056      C1057   1.382       .  A
C1056      C1750   1.483       .  S
C1057      C1058   1.382       .  A
C1057      H1060   1.082       .  S
C1058      C1059   1.385       .  A
C1058      H1061   1.082       .  S
C1059      C1783   1.485       .  S
N1062      C1066   1.353       .  A
N1062      N1063   1.324       .  A
N1062     Cu1070   2.117       .  S
N1063      C1064   1.340       .  A
N1063     Cu1069   2.065       .  S
C1064      C1065   1.379       .  A
C1064      H1067   1.082       .  S
C1065      C1066   1.393       .  A
C1065      C1375   1.474       .  S
C1066      H1068   1.082       .  S
Cu1069     N1072   2.067       .  S
Cu1070     N1080   2.116       .  S
Cu1071     N1073   2.051       .  S
Cu1071     N1079   2.052       .  S
N1072      C1076   1.346       .  A
N1072      N1073   1.318       .  A
N1073      C1074   1.342       .  A
C1074      C1075   1.379       .  A
C1074      H1077   1.082       .  S
C1075      C1076   1.384       .  A
C1076      H1078   1.082       .  S
N1079      C1083   1.338       .  A
N1079      N1080   1.322       .  A
N1080      C1081   1.354       .  A
C1081      C1082   1.398       .  A
C1081      H1084   1.081       .  S
C1082      C1083   1.380       .  A
C1082      C1753   1.492       .  S
C1083      H1085   1.082       .  S
N1086      C1090   1.358       .  A
N1086      C1087   1.360       .  A
N1086      C1740   1.436       .  S
C1087      C1088   1.383       .  A
C1087      C1730   1.493       .  S
C1088      C1089   1.382       .  A
C1088      H1091   1.082       .  S
C1089      C1090   1.382       .  A
C1089      H1092   1.082       .  S
C1090      C1763   1.488       .  S
N1093      C1097   1.354       .  A
N1093      N1094   1.324       .  A
N1093     Cu1101   2.121       .  S
N1094      C1095   1.342       .  A
N1094     Cu1100   2.069       .  S
C1095      C1096   1.379       .  A
C1095      H1098   1.082       .  S
C1096      C1097   1.393       .  A
C1096      C1189   1.476       .  S
C1097      H1099   1.082       .  S
Cu1100     N1103   2.069       .  S
Cu1101     N1111   2.121       .  S
Cu1102     N1104   2.063       .  S
Cu1102     N1110   2.064       .  S
N1103      C1107   1.345       .  A
N1103      N1104   1.319       .  A
N1104      C1105   1.345       .  A
C1105      C1106   1.384       .  A
C1105      H1108   1.082       .  S
C1106      C1107   1.385       .  A
C1107      H1109   1.082       .  S
N1110      C1114   1.341       .  A
N1110      N1111   1.323       .  A
N1111      C1112   1.355       .  A
C1112      C1113   1.397       .  A
C1112      H1115   1.081       .  S
C1113      C1114   1.381       .  A
C1113      C1733   1.495       .  S
C1114      H1116   1.082       .  S
N1117      C1121   1.369       .  A
N1117      C1118   1.360       .  A
N1117      C1710   1.439       .  S
C1118      C1119   1.381       .  A
C1118      C1720   1.495       .  S
C1119      C1120   1.376       .  A
C1119      H1122   1.082       .  S
C1120      C1121   1.387       .  A
C1120      H1123   1.081       .  S
C1121      C1700   1.513   1_565  S
N1124      C1128   1.358       .  A
N1124      N1125   1.322       .  A
N1124     Cu1132   2.123       .  S
N1125      C1126   1.338       .  A
N1125     Cu1131   2.064       .  S
C1126      C1127   1.381       .  A
C1126      H1129   1.082       .  S
C1127      C1128   1.398       .  A
C1128      H1130   1.082       .  S
Cu1131     N1134   2.067       .  S
Cu1132     N1142   2.124       .  S
Cu1133     N1135   2.066       .  S
Cu1133     N1141   2.068       .  S
N1134      C1138   1.343       .  A
N1134      N1135   1.319       .  A
N1135      C1136   1.348       .  A
C1136      C1137   1.384       .  A
C1136      H1139   1.082       .  S
C1137      C1138   1.383       .  A
C1138      H1140   1.082       .  S
N1141      C1145   1.340       .  A
N1141      N1142   1.326       .  A
N1142      C1143   1.356       .  A
C1143      C1144   1.394       .  A
C1143      H1146   1.082       .  S
C1144      C1145   1.379       .  A
C1144      C1723   1.489       .  S
C1145      H1147   1.082       .  S
N1148      C1152   1.372       .  A
N1148      C1149   1.361       .  A
N1148      C1713   1.439   1_545  S
C1149      C1150   1.376       .  A
C1149      C1690   1.490   1_545  S
C1150      C1151   1.376       .  A
C1150      H1153   1.082       .  S
C1151      C1152   1.389       .  A
C1151      H1154   1.081       .  S
C1152      C1680   1.518       .  S
N1155      C1159   1.355       .  A
N1155      N1156   1.323       .  A
N1155     Cu1163   2.125       .  S
N1156      C1157   1.343       .  A
N1156     Cu1162   2.066       .  S
C1157      C1158   1.379       .  A
C1157      H1160   1.082       .  S
C1158      C1159   1.396       .  A
C1159      H1161   1.082       .  S
Cu1162     N1165   2.068       .  S
Cu1163     N1173   2.126       .  S
Cu1164     N1166   2.084       .  S
Cu1164     N1172   2.086       .  S
N1165      C1169   1.344       .  A
N1165      N1166   1.320       .  A
N1166      C1167   1.349       .  A
C1167      C1168   1.387       .  A
C1167      H1170   1.082       .  S
C1168      C1169   1.383       .  A
C1169      H1171   1.082       .  S
N1172      C1176   1.346       .  A
N1172      N1173   1.325       .  A
N1173      C1174   1.354       .  A
C1174      C1175   1.397       .  A
C1174      H1177   1.081       .  S
C1175      C1176   1.388       .  A
C1175      C1693   1.503       .  S
C1176      H1178   1.082       .  S
N1179      C1183   1.368       .  A
N1179      C1180   1.364       .  A
N1179      C1660   1.439       .  S
C1180      C1181   1.383       .  A
C1180      C1670   1.500       .  S
C1181      C1182   1.378       .  A
C1181      H1184   1.082       .  S
C1182      C1183   1.383       .  A
C1182      H1185   1.082       .  S
C1183      C1683   1.502       .  S
N1186      C1190   1.353       .  A
N1186      N1187   1.323       .  A
N1186     Cu1194   2.115       .  S
N1187      C1188   1.343       .  A
N1187     Cu1193   2.068       .  S
C1188      C1189   1.381       .  A
C1188      H1191   1.082       .  S
C1189      C1190   1.393       .  A
C1190      H1192   1.082       .  S
Cu1193     N1196   2.069       .  S
Cu1194     N1204   2.116   1_556  S
Cu1195     N1197   2.086       .  S
Cu1195     N1203   2.087       .  S
N1196      C1200   1.346       .  A
N1196      N1197   1.321   1_556  A
N1197      C1198   1.348       .  A
C1198      C1199   1.387   1_554  A
C1198      H1201   1.082       .  S
C1199      C1200   1.383       .  A
C1200      H1202   1.082       .  S
N1203      C1207   1.345       .  A
N1203      N1204   1.322       .  A
N1204      C1205   1.353       .  A
C1205      C1206   1.400       .  A
C1205      H1208   1.078       .  S
C1206      C1207   1.392       .  A
C1206      C1673   1.511       .  S
C1207      H1209   1.081       .  S
N1210      C1214   1.361       .  A
N1210      C1211   1.353       .  A
N1210      C1663   1.435       .  S
C1211      C1212   1.381       .  A
C1211      C1650   1.482       .  S
C1212      C1213   1.381       .  A
C1212      H1215   1.082       .  S
C1213      C1214   1.386       .  A
C1213      H1216   1.082       .  S
C1214      C1703   1.493       .  S
N1217      C1221   1.354       .  A
N1217      N1218   1.322       .  A
N1217     Cu1225   2.110       .  S
N1218      C1219   1.340       .  A
N1218     Cu1224   2.063       .  S
C1219      C1220   1.381       .  A
C1219      H1222   1.082       .  S
C1220      C1221   1.393       .  A
C1221      H1223   1.082       .  S
Cu1224     N1227   2.065       .  S
Cu1225     N1235   2.111       .  S
Cu1226     N1228   2.071       .  S
Cu1226     N1234   2.073       .  S
N1227      C1231   1.344       .  A
N1227      N1228   1.320       .  A
N1228      C1229   1.347       .  A
C1229      C1230   1.385       .  A
C1229      H1232   1.082       .  S
C1230      C1231   1.383       .  A
C1231      H1233   1.082       .  S
N1234      C1238   1.344       .  A
N1234      N1235   1.324       .  A
N1235      C1236   1.350       .  A
C1236      C1237   1.392       .  A
C1236      H1239   1.082       .  S
C1237      C1238   1.384       .  A
C1237      C1653   1.492       .  S
C1238      H1240   1.081       .  S
N1241      C1245   1.360       .  A
N1241      C1242   1.360       .  A
N1241      C1630   1.435       .  S
C1242      C1243   1.383       .  A
C1242      C1640   1.493       .  S
C1243      C1244   1.379       .  A
C1243      H1246   1.082       .  S
C1244      C1245   1.382       .  A
C1244      H1247   1.082       .  S
C1245      C1620   1.492       .  S
N1248      C1252   1.354       .  A
N1248      N1249   1.324       .  A
N1248     Cu1256   2.131       .  S
N1249      C1250   1.344       .  A
N1249     Cu1255   2.072       .  S
C1250      C1251   1.381       .  A
C1250      H1253   1.082       .  S
C1251      C1252   1.395       .  A
C1252      H1254   1.082       .  S
Cu1255     N1258   2.072       .  S
Cu1256     N1266   2.131   1_554  S
Cu1257     N1259   2.072   1_556  S
Cu1257     N1265   2.074       .  S
N1258      C1262   1.347       .  A
N1258      N1259   1.320       .  A
N1259      C1260   1.344       .  A
C1260      C1261   1.384       .  A
C1260      H1263   1.082   1_554  S
C1261      C1262   1.385       .  A
C1262      H1264   1.082       .  S
N1265      C1269   1.344       .  A
N1265      N1266   1.322       .  A
N1266      C1267   1.355       .  A
C1267      C1268   1.401       .  A
C1267      H1270   1.080       .  S
C1268      C1269   1.387       .  A
C1268      C1643   1.507       .  S
C1269      H1271   1.082       .  S
N1272      C1276   1.367       .  A
N1272      C1273   1.360       .  A
N1272      C1633   1.434       .  S
C1273      C1274   1.378       .  A
C1273      C1610   1.491       .  S
C1274      C1275   1.375       .  A
C1274      H1277   1.082       .  S
C1275      C1276   1.389       .  A
C1275      H1278   1.082       .  S
C1276      C1600   1.511       .  S
N1279      C1283   1.358       .  A
N1279      N1280   1.323       .  A
N1279     Cu1287   2.129       .  S
N1280      C1281   1.339       .  A
N1280     Cu1286   2.067       .  S
C1281      C1282   1.382       .  A
C1281      H1284   1.083       .  S
C1282      C1283   1.399       .  A
C1283      H1285   1.082       .  S
Cu1286     N1289   2.068       .  S
Cu1287     N1297   2.131       .  S
Cu1288     N1290   2.059       .  S
Cu1288     N1296   2.062       .  S
N1289      C1293   1.344   1_556  A
N1289      N1290   1.318       .  A
N1290      C1291   1.346       .  A
C1291      C1292   1.382   1_556  A
C1291      H1294   1.082       .  S
C1292      C1293   1.384       .  A
C1293      H1295   1.082       .  S
N1296      C1300   1.340       .  A
N1296      N1297   1.325       .  A
N1297      C1298   1.356       .  A
C1298      C1299   1.397       .  A
C1298      H1301   1.082       .  S
C1299      C1300   1.379       .  A
C1299      C1613   1.492       .  S
C1300      H1302   1.081       .  S
N1303      C1307   1.367       .  A
N1303      C1304   1.364       .  A
N1303      C1580   1.434       .  S
C1304      C1305   1.381       .  A
C1304      C1590   1.498       .  S
C1305      C1306   1.373       .  A
C1305      H1308   1.082       .  S
C1306      C1307   1.386       .  A
C1306      H1309   1.082       .  S
C1307      C1623   1.507       .  S
N1310      C1314   1.352       .  A
N1310      N1311   1.325       .  A
N1310     Cu1318   2.121       .  S
N1311      C1312   1.345       .  A
N1311     Cu1317   2.074       .  S
C1312      C1313   1.381       .  A
C1312      H1315   1.082       .  S
C1313      C1314   1.392       .  A
C1314      H1316   1.082       .  S
Cu1317     N1320   2.073       .  S
Cu1318     N1328   2.120       .  S
Cu1319     N1321   2.065       .  S
Cu1319     N1327   2.066       .  S
N1320      C1324   1.346       .  A
N1320      N1321   1.320       .  A
N1321      C1322   1.344       .  A
C1322      C1323   1.383       .  A
C1322      H1325   1.082       .  S
C1323      C1324   1.385       .  A
C1324      H1326   1.082       .  S
N1327      C1331   1.342       .  A
N1327      N1328   1.322       .  A
N1328      C1329   1.355       .  A
C1329      C1330   1.397       .  A
C1329      H1332   1.081       .  S
C1330      C1331   1.384       .  A
C1330      C1593   1.497       .  S
C1331      H1333   1.082       .  S
N1334      C1338   1.367       .  A
N1334      C1335   1.366       .  A
N1334      C1583   1.445       .  S
C1335      C1336   1.380       .  A
C1335      C1570   1.493       .  S
C1336      C1337   1.375       .  A
C1336      H1339   1.082       .  S
C1337      C1338   1.382       .  A
C1337      H1340   1.082       .  S
C1338      C1603   1.492       .  S
N1341      C1345   1.361       .  A
N1341      N1342   1.323       .  A
N1341     Cu1349   2.142       .  S
N1342      C1343   1.340       .  A
N1342     Cu1348   2.063       .  S
C1343      C1344   1.380       .  A
C1343      H1346   1.082       .  S
C1344      C1345   1.400       .  A
C1344      C1406   1.489       .  S
C1345      H1347   1.082       .  S
Cu1348     N1351   2.063       .  S
Cu1349     N1359   2.144       .  S
Cu1350     N1352   2.074       .  S
Cu1350     N1358   2.075       .  S
N1351      C1355   1.344       .  A
N1351      N1352   1.319       .  A
N1352      C1353   1.347       .  A
C1353      C1354   1.386       .  A
C1353      H1356   1.082       .  S
C1354      C1355   1.383       .  A
C1355      H1357   1.082       .  S
N1358      C1362   1.344       .  A
N1358      N1359   1.325       .  A
N1359      C1360   1.357       .  A
C1360      C1361   1.401       .  A
C1360      H1363   1.081       .  S
C1361      C1362   1.382       .  A
C1361      C1573   1.503       .  S
C1362      H1364   1.082       .  S
N1365      C1369   1.362       .  A
N1365      C1366   1.356       .  A
N1365      C1550   1.436       .  S
C1366      C1367   1.380       .  A
C1366      C1563   1.482       .  S
C1367      C1368   1.379       .  A
C1367      H1370   1.082       .  S
C1368      C1369   1.385       .  A
C1368      H1371   1.082       .  S
C1369      C1540   1.492       .  S
N1372      C1376   1.354       .  A
N1372      N1373   1.323       .  A
N1372     Cu1380   2.116       .  S
N1373      C1374   1.341       .  A
N1373     Cu1379   2.064       .  S
C1374      C1375   1.380       .  A
C1374      H1377   1.082       .  S
C1375      C1376   1.393       .  A
C1376      H1378   1.082       .  S
Cu1379     N1382   2.065       .  S
Cu1380     N1390   2.117       .  S
Cu1381     N1383   2.066       .  S
Cu1381     N1389   2.068       .  S
N1382      C1386   1.343       .  A
N1382      N1383   1.319       .  A
N1383      C1384   1.347       .  A
C1384      C1385   1.385       .  A
C1384      H1387   1.082       .  S
C1385      C1386   1.384       .  A
C1386      H1388   1.082       .  S
N1389      C1393   1.341       .  A
N1389      N1390   1.323       .  A
N1390      C1391   1.353       .  A
C1391      C1392   1.398       .  A
C1391      H1394   1.080       .  S
C1392      C1393   1.384       .  A
C1392      C1560   1.498       .  S
C1393      H1395   1.082       .  S
N1396      C1400   1.365       .  A
N1396      C1397   1.366       .  A
N1396      C1553   1.445       .  S
C1397      C1398   1.384       .  A
C1397      C1530   1.495       .  S
C1398      C1399   1.373       .  A
C1398      H1401   1.082       .  S
C1399      C1400   1.380       .  A
C1399      H1402   1.082       .  S
C1400      C1523   1.488       .  S
N1403      C1407   1.360       .  A
N1403      N1404   1.324       .  A
N1403     Cu1411   2.136   1_565  S
N1404      C1405   1.341       .  A
N1404     Cu1410   2.073       .  S
C1405      C1406   1.381       .  A
C1405      H1408   1.082       .  S
C1406      C1407   1.399       .  A
C1407      H1409   1.082       .  S
Cu1410     N1413   2.074   1_565  S
Cu1411     N1421   2.136       .  S
Cu1412     N1414   2.064       .  S
Cu1412     N1420   2.064       .  S
N1413      C1417   1.347       .  A
N1413      N1414   1.320       .  A
N1414      C1415   1.343       .  A
C1415      C1416   1.383       .  A
C1415      H1418   1.082       .  S
C1416      C1417   1.386       .  A
C1417      H1419   1.082   1_545  S
N1420      C1424   1.343       .  A
N1420      N1421   1.324       .  A
N1421      C1422   1.356       .  A
C1422      C1423   1.399       .  A
C1422      H1425   1.081       .  S
C1423      C1424   1.380       .  A
C1423      C1533   1.496       .  S
C1424      H1426   1.082       .  S
N1427      C1431   1.359       .  A
N1427      C1428   1.360       .  A
N1427      C1500   1.436       .  S
C1428      C1429   1.381       .  A
C1428      C1513   1.488       .  S
C1429      C1430   1.378   1_655  A
C1429      H1432   1.082       .  S
C1430      C1431   1.385   1_455  A
C1430      H1433   1.082       .  S
C1431      C1520   1.492   1_655  S
N1434      C1438   1.357       .  A
N1434      N1435   1.323       .  A
N1434     Cu1442   2.129       .  S
N1435      C1436   1.339       .  A
N1435     Cu1441   2.059       .  S
C1436      C1437   1.379       .  A
C1436      H1439   1.082       .  S
C1437      C1438   1.398       .  A
C1438      H1440   1.082       .  S
Cu1441     N1444   2.062       .  S
Cu1442     N1452   2.130       .  S
Cu1443     N1445   2.066       .  S
Cu1443     N1451   2.067       .  S
N1444      C1448   1.343       .  A
N1444      N1445   1.318       .  A
N1445      C1446   1.347       .  A
C1446      C1447   1.384       .  A
C1446      H1449   1.082       .  S
C1447      C1448   1.382       .  A
C1448      H1450   1.082       .  S
N1451      C1455   1.338       .  A
N1451      N1452   1.324       .  A
N1452      C1453   1.358       .  A
C1453      C1454   1.400       .  A
C1453      H1456   1.081       .  S
C1454      C1455   1.381       .  A
C1454      C1510   1.499       .  S
C1455      H1457   1.082       .  S
N1458      C1462   1.362       .  A
N1458      C1459   1.363       .  A
N1458      C1503   1.442       .  S
C1459      C1460   1.385       .  A
C1459      C1490   1.495       .  S
C1460      C1461   1.377       .  A
C1460      H1463   1.082       .  S
C1461      C1462   1.380       .  A
C1461      H1464   1.082       .  S
C1462      C1543   1.487       .  S
N1465      C1469   1.357       .  A
N1465      N1466   1.323       .  A
N1465     Cu1473   2.131       .  S
N1466      C1467   1.340       .  A
N1466     Cu1472   2.057       .  S
C1467      C1468   1.379       .  A
C1467      H1470   1.082       .  S
C1468      C1469   1.397       .  A
C1469      H1471   1.082       .  S
Cu1472     N1475   2.059       .  S
Cu1473     N1483   2.132       .  S
Cu1474     N1476   2.060       .  S
Cu1474     N1482   2.062       .  S
N1475      C1479   1.344       .  A
N1475      N1476   1.319       .  A
N1476      C1477   1.344       .  A
C1477      C1478   1.383       .  A
C1477      H1480   1.082       .  S
C1478      C1479   1.382       .  A
C1479      H1481   1.082       .  S
N1482      C1486   1.342       .  A
N1482      N1483   1.324       .  A
N1483      C1484   1.355       .  A
C1484      C1485   1.397       .  A
C1484      H1487   1.082       .  S
C1485      C1486   1.380       .  A
C1485      C1493   1.494       .  S
C1486      H1488   1.081       .  S
C1489      C1490   1.402       .  A
C1489      C1494   1.404       .  A
C1489      H1496   1.083       .  S
C1490      C1491   1.416       .  A
C1491      C1492   1.404       .  A
C1491     Br1498   1.920       .  S
C1492      C1493   1.403       .  A
C1492      H1497   1.083       .  S
C1493      C1494   1.417       .  A
C1494     Br1495   1.918       .  S
C1499      C1500   1.402       .  A
C1499      C1504   1.399       .  A
C1499      H1506   1.081       .  S
C1500      C1501   1.401       .  A
C1501      C1502   1.395       .  A
C1501     Br1508   1.916   1_655  S
C1502      C1503   1.402       .  A
C1502      H1507   1.073       .  S
C1503      C1504   1.409       .  A
C1504     Br1505   1.915       .  S
C1509      C1510   1.409       .  A
C1509      C1514   1.398       .  A
C1509      H1516   1.083       .  S
C1510      C1511   1.415       .  A
C1511      C1512   1.409       .  A
C1511     Br1518   1.918       .  S
C1512      C1513   1.408       .  A
C1512      H1517   1.083   1_655  S
C1513      C1514   1.404       .  A
C1514     Br1515   1.916       .  S
C1519      C1520   1.405   1_655  A
C1519      C1524   1.405   1_655  A
C1519      H1526   1.079       .  S
C1520      C1521   1.412       .  A
C1521      C1522   1.400       .  A
C1521     Br1528   1.920       .  S
C1522      C1523   1.402       .  A
C1522      H1527   1.081       .  S
C1523      C1524   1.410       .  A
C1524     Br1525   1.918   1_455  S
C1529      C1530   1.407       .  A
C1529      C1534   1.403       .  A
C1529      H1536   1.084       .  S
C1530      C1531   1.410       .  A
C1531      C1532   1.408       .  A
C1531     Br1538   1.917       .  S
C1532      C1533   1.411       .  A
C1532      H1537   1.083       .  S
C1533      C1534   1.412       .  A
C1534     Br1535   1.919       .  S
C1539      C1540   1.407       .  A
C1539      C1544   1.404       .  A
C1539      H1546   1.084       .  S
C1540      C1541   1.411       .  A
C1541      C1542   1.403   1_455  A
C1541     Br1548   1.913       .  S
C1542      C1543   1.403       .  A
C1542      H1547   1.084       .  S
C1543      C1544   1.411   1_655  A
C1544     Br1545   1.921       .  S
C1549      C1550   1.400       .  A
C1549      C1554   1.399       .  A
C1549      H1556   1.080       .  S
C1550      C1551   1.402       .  A
C1551      C1552   1.397       .  A
C1551     Br1558   1.915       .  S
C1552      C1553   1.406       .  A
C1552      H1557   1.076       .  S
C1553      C1554   1.410       .  A
C1554     Br1555   1.915       .  S
C1559      C1560   1.411       .  A
C1559      C1564   1.400       .  A
C1559      H1566   1.082       .  S
C1560      C1561   1.416       .  A
C1561      C1562   1.405       .  A
C1561     Br1568   1.918       .  S
C1562      C1563   1.403       .  A
C1562      H1567   1.082       .  S
C1563      C1564   1.403       .  A
C1564     Br1565   1.918       .  S
C1569      C1570   1.405       .  A
C1569      C1574   1.407       .  A
C1569      H1576   1.084       .  S
C1570      C1571   1.406       .  A
C1571      C1572   1.407       .  A
C1571     Br1578   1.918       .  S
C1572      C1573   1.412       .  A
C1572      H1577   1.083       .  S
C1573      C1574   1.416       .  A
C1574     Br1575   1.917       .  S
C1579      C1580   1.399       .  A
C1579      C1584   1.400       .  A
C1579      H1586   1.083       .  S
C1580      C1581   1.406       .  A
C1581      C1582   1.394       .  A
C1581     Br1588   1.919       .  S
C1582      C1583   1.404       .  A
C1582      H1587   1.080       .  S
C1583      C1584   1.415       .  A
C1584     Br1585   1.914       .  S
C1589      C1590   1.408       .  A
C1589      C1594   1.410       .  A
C1589      H1596   1.082       .  S
C1590      C1591   1.413       .  A
C1591      C1592   1.398       .  A
C1591     Br1598   1.922       .  S
C1592      C1593   1.406       .  A
C1592      H1597   1.083       .  S
C1593      C1594   1.414       .  A
C1594     Br1595   1.917       .  S
C1599      C1600   1.411       .  A
C1599      C1604   1.409       .  A
C1599      H1606   1.071       .  S
C1600      C1601   1.420       .  A
C1601      C1602   1.400       .  A
C1601     Br1608   1.924       .  S
C1602      C1603   1.401       .  A
C1602      H1607   1.084       .  S
C1603      C1604   1.407       .  A
C1604     Br1605   1.916       .  S
C1609      C1610   1.401       .  A
C1609      C1614   1.403       .  A
C1609      H1616   1.082       .  S
C1610      C1611   1.412       .  A
C1611      C1612   1.404       .  A
C1611     Br1618   1.919       .  S
C1612      C1613   1.404       .  A
C1612      H1617   1.083       .  S
C1613      C1614   1.418       .  A
C1614     Br1615   1.921       .  S
C1619      C1620   1.403       .  A
C1619      C1624   1.410       .  A
C1619      H1626   1.084       .  S
C1620      C1621   1.408       .  A
C1621      C1622   1.401       .  A
C1621     Br1628   1.918       .  S
C1622      C1623   1.409       .  A
C1622      H1627   1.084       .  S
C1623      C1624   1.419       .  A
C1624     Br1625   1.908       .  S
C1629      C1630   1.399       .  A
C1629      C1634   1.397       .  A
C1629      H1636   1.082       .  S
C1630      C1631   1.408       .  A
C1631      C1632   1.397       .  A
C1631     Br1638   1.910       .  S
C1632      C1633   1.399       .  A
C1632      H1637   1.083       .  S
C1633      C1634   1.409       .  A
C1634     Br1635   1.919       .  S
C1639      C1640   1.405       .  A
C1639      C1644   1.410       .  A
C1639      H1646   1.082       .  S
C1640      C1641   1.407       .  A
C1641      C1642   1.402       .  A
C1641     Br1648   1.920       .  S
C1642      C1643   1.411       .  A
C1642      H1647   1.082       .  S
C1643      C1644   1.419       .  A
C1644     Br1645   1.917       .  S
C1649      C1650   1.399       .  A
C1649      C1654   1.401       .  A
C1649      H1656   1.084       .  S
C1650      C1651   1.406       .  A
C1651      C1652   1.404       .  A
C1651     Br1658   1.916       .  S
C1652      C1653   1.408       .  A
C1652      H1657   1.083       .  S
C1653      C1654   1.418       .  A
C1654     Br1655   1.921       .  S
C1659      C1660   1.406       .  A
C1659      C1664   1.401       .  A
C1659      H1666   1.083       .  S
C1660      C1661   1.409       .  A
C1661      C1662   1.394       .  A
C1661     Br1668   1.919       .  S
C1662      C1663   1.399       .  A
C1662      H1667   1.082       .  S
C1663      C1664   1.404       .  A
C1664     Br1665   1.914       .  S
C1669      C1670   1.406       .  A
C1669      C1674   1.408       .  A
C1669      H1676   1.084       .  S
C1670      C1671   1.410       .  A
C1671      C1672   1.404       .  A
C1671     Br1678   1.912       .  S
C1672      C1673   1.411       .  A
C1672      H1677   1.082       .  S
C1673      C1674   1.421       .  A
C1674     Br1675   1.918       .  S
C1679      C1680   1.406       .  A
C1679      C1684   1.407       .  A
C1679      H1686   1.067       .  S
C1680      C1681   1.421       .  A
C1681      C1682   1.406       .  A
C1681     Br1688   1.922       .  S
C1682      C1683   1.405       .  A
C1682      H1687   1.083       .  S
C1683      C1684   1.407       .  A
C1684     Br1685   1.915       .  S
C1689      C1690   1.404       .  A
C1689      C1694   1.409       .  A
C1689      H1696   1.083   1_565  S
C1690      C1691   1.406       .  A
C1691      C1692   1.403       .  A
C1691     Br1698   1.918       .  S
C1692      C1693   1.410       .  A
C1692      H1697   1.082       .  S
C1693      C1694   1.418       .  A
C1694     Br1695   1.918       .  S
C1699      C1700   1.405       .  A
C1699      C1704   1.403       .  A
C1699      H1706   1.067       .  S
C1700      C1701   1.421       .  A
C1701      C1702   1.404       .  A
C1701     Br1708   1.921       .  S
C1702      C1703   1.403       .  A
C1702      H1707   1.083       .  S
C1703      C1704   1.404       .  A
C1704     Br1705   1.915       .  S
C1709      C1710   1.406       .  A
C1709      C1714   1.400       .  A
C1709      H1716   1.083       .  S
C1710      C1711   1.405       .  A
C1711      C1712   1.397   1_565  A
C1711     Br1718   1.916   1_565  S
C1712      C1713   1.406   1_545  A
C1712      H1717   1.082       .  S
C1713      C1714   1.406       .  A
C1714     Br1715   1.915       .  S
C1719      C1720   1.403       .  A
C1719      C1724   1.399       .  A
C1719      H1726   1.082       .  S
C1720      C1721   1.415       .  A
C1721      C1722   1.407       .  A
C1721     Br1728   1.919       .  S
C1722      C1723   1.404       .  A
C1722      H1727   1.083       .  S
C1723      C1724   1.414       .  A
C1724     Br1725   1.921       .  S
C1729      C1730   1.406       .  A
C1729      C1734   1.405       .  A
C1729      H1736   1.084       .  S
C1730      C1731   1.409       .  A
C1731      C1732   1.402       .  A
C1731     Br1738   1.917       .  S
C1732      C1733   1.409       .  A
C1732      H1737   1.084       .  S
C1733      C1734   1.414       .  A
C1734     Br1735   1.918       .  S
C1739      C1740   1.400       .  A
C1739      C1744   1.389       .  A
C1739      H1746   1.073       .  S
C1740      C1741   1.407       .  A
C1741      C1742   1.397       .  A
C1741     Br1748   1.915       .  S
C1742      C1743   1.401       .  A
C1742      H1747   1.081       .  S
C1743      C1744   1.400       .  A
C1744     Br1745   1.916       .  S
C1749      C1750   1.403       .  A
C1749      C1754   1.404       .  A
C1749      H1756   1.083       .  S
C1750      C1751   1.405       .  A
C1751      C1752   1.399       .  A
C1751     Br1758   1.917       .  S
C1752      C1753   1.410       .  A
C1752      H1757   1.083       .  S
C1753      C1754   1.415       .  A
C1754     Br1755   1.917       .  S
C1759      C1760   1.408       .  A
C1759      C1764   1.404       .  A
C1759      H1766   1.084       .  S
C1760      C1761   1.412       .  A
C1761      C1762   1.404       .  A
C1761     Br1768   1.914       .  S
C1762      C1763   1.403       .  A
C1762      H1767   1.084       .  S
C1763      C1764   1.410       .  A
C1764     Br1765   1.921       .  S
C1769      C1770   1.405       .  A
C1769      C1774   1.404       .  A
C1769      H1776   1.083       .  S
C1770      C1771   1.420       .  A
C1771      C1772   1.406       .  A
C1771     Br1778   1.920       .  S
C1772      C1773   1.402       .  A
C1772      H1777   1.083       .  S
C1773      C1774   1.413       .  A
C1774     Br1775   1.920       .  S
C1779      C1780   1.402       .  A
C1779      C1784   1.401       .  A
C1779      H1786   1.082       .  S
C1780      C1781   1.407       .  A
C1781      C1782   1.399       .  A
C1781     Br1788   1.919       .  S
C1782      C1783   1.403       .  A
C1782      H1787   1.080       .  S
C1783      C1784   1.411       .  A
C1784     Br1785   1.919       .  S
C1789      C1790   1.405       .  A
C1789      C1794   1.402       .  A
C1789      H1796   1.080       .  S
C1790      C1791   1.408       .  A
C1791      C1792   1.398       .  A
C1791     Br1798   1.914       .  S
C1792      C1793   1.400       .  A
C1792      H1797   1.078       .  S
C1793      C1794   1.406       .  A
C1794     Br1795   1.914       .  S
C1799      C1800   1.401       .  A
C1799      C1804   1.403       .  A
C1799      H1806   1.083       .  S
C1800      C1801   1.412       .  A
C1801      C1802   1.399       .  A
C1801     Br1808   1.921       .  S
C1802      C1803   1.403       .  A
C1802      H1807   1.083       .  S
C1803      C1804   1.418       .  A
C1804     Br1805   1.921       .  S
C1809      C1810   1.403       .  A
C1809      C1814   1.404       .  A
C1809      H1816   1.083       .  S
C1810      C1811   1.413       .  A
C1811      C1812   1.403       .  A
C1811     Br1818   1.919   1_565  S
C1812      C1813   1.403       .  A
C1812      H1817   1.083       .  S
C1813      C1814   1.414       .  A
C1814     Br1815   1.920       .  S
C1819      C1820   1.397       .  A
C1819      C1824   1.397       .  A
C1819      H1826   1.082       .  S
C1820      C1821   1.405       .  A
C1821      C1822   1.396       .  A
C1821     Br1828   1.916       .  S
C1822      C1823   1.404       .  A
C1822      H1827   1.083   1_565  S
C1823      C1824   1.410       .  A
C1824     Br1825   1.915       .  S
C1829      C1830   1.400       .  A
C1829      C1834   1.401       .  A
C1829      H1836   1.084       .  S
C1830      C1831   1.410       .  A
C1831      C1832   1.407       .  A
C1831     Br1838   1.915       .  S
C1832      C1833   1.407       .  A
C1832      H1837   1.083       .  S
C1833      C1834   1.420       .  A
C1834     Br1835   1.921       .  S
C1839      C1840   1.400       .  A
C1839      C1844   1.401       .  A
C1839      H1846   1.083       .  S
C1840      C1841   1.410       .  A
C1841      C1842   1.409       .  A
C1841     Br1848   1.917       .  S
C1842      C1843   1.409       .  A
C1842      H1847   1.079       .  S
C1843      C1844   1.415       .  A
C1844     Br1845   1.921   1_545  S
C1849      C1850   1.401       .  A
C1849      C1854   1.406       .  A
C1849      H1856   1.084       .  S
C1850      C1851   1.411       .  A
C1851      C1852   1.406       .  A
C1851     Br1858   1.917       .  S
C1852      C1853   1.405       .  A
C1852      H1857   1.083       .  S
C1853      C1854   1.419       .  A
C1854     Br1855   1.921       .  S
C1859      C1860   1.410       .  A
C1859      C1864   1.406       .  A
C1859      H1866   1.073       .  S
C1860      C1861   1.418       .  A
C1861      C1862   1.401       .  A
C1861     Br1868   1.922       .  S
C1862      C1863   1.401       .  A
C1862      H1867   1.084   1_545  S
C1863      C1864   1.407       .  A
C1864     Br1865   1.917       .  S
C1869      C1870   1.398       .  A
C1869      C1874   1.397       .  A
C1869      H1876   1.083       .  S
C1870      C1871   1.408       .  A
C1871      C1872   1.394       .  A
C1871     Br1878   1.917       .  S
C1872      C1873   1.399       .  A
C1872      H1877   1.083       .  S
C1873      C1874   1.408       .  A
C1874     Br1875   1.913       .  S
C1879      C1880   1.407       .  A
C1879      C1884   1.412       .  A
C1879      H1886   1.083       .  S
C1880      C1881   1.406       .  A
C1881      C1882   1.399       .  A
C1881     Br1888   1.918       .  S
C1882      C1883   1.409       .  A
C1882      H1887   1.083       .  S
C1883      C1884   1.417       .  A
C1884     Br1885   1.916       .  S
C1889      C1890   1.408       .  A
C1889      C1894   1.406       .  A
C1889      H1896   1.083       .  S
C1890      C1891   1.406       .  A
C1891      C1892   1.406       .  A
C1891     Br1898   1.913       .  S
C1892      C1893   1.409       .  A
C1892      H1897   1.084       .  S
C1893      C1894   1.411       .  A
C1894     Br1895   1.918       .  S
C1899      C1900   1.405       .  A
C1899      C1904   1.398       .  A
C1899      H1906   1.081       .  S
C1900      C1901   1.416       .  A
C1901      C1902   1.398       .  A
C1901     Br1908   1.912       .  S
C1902      C1903   1.395       .  A
C1902      H1907   1.083       .  S
C1903      C1904   1.407       .  A
C1904     Br1905   1.918       .  S
C1909      C1910   1.407       .  A
C1909      C1914   1.399       .  A
C1909      H1916   1.083       .  S
C1910      C1911   1.415       .  A
C1911      C1912   1.411       .  A
C1911     Br1918   1.917       .  S
C1912      C1913   1.408       .  A
C1912      H1917   1.082       .  S
C1913      C1914   1.410       .  A
C1914     Br1915   1.921       .  S
C1919      C1920   1.412       .  A
C1919      C1924   1.401       .  A
C1919      H1926   1.083       .  S
C1920      C1921   1.421   1_554  A
C1921      C1922   1.407   1_556  A
C1921     Br1928   1.902       .  S
C1922      C1923   1.399       .  A
C1922      H1927   1.084       .  S
C1923      C1924   1.409       .  A
C1924     Br1925   1.922       .  S
C1929      C1930   1.398       .  A
C1929      C1934   1.399       .  A
C1929      H1936   1.079       .  S
C1930      C1931   1.412       .  A
C1931      C1932   1.409       .  A
C1931     Br1938   1.917       .  S
C1932      C1933   1.406       .  A
C1932      H1937   1.083       .  S
C1933      C1934   1.416       .  A
C1934     Br1935   1.922       .  S
C1939      C1940   1.404       .  A
C1939      C1944   1.410   1_556  A
C1939      H1946   1.084       .  S
C1940      C1941   1.410   1_556  A
C1941      C1942   1.401       .  A
C1941     Br1948   1.921       .  S
C1942      C1943   1.408       .  A
C1942      H1947   1.084       .  S
C1943      C1944   1.417       .  A
C1944     Br1945   1.909       .  S
C1949      C1950   1.402       .  A
C1949      C1954   1.396       .  A
C1949      H1956   1.082       .  S
C1950      C1951   1.411       .  A
C1951      C1952   1.396       .  A
C1951     Br1958   1.907       .  S
C1952      C1953   1.395       .  A
C1952      H1957   1.083       .  S
C1953      C1954   1.410       .  A
C1954     Br1955   1.921       .  S
C1959      C1960   1.402       .  A
C1959      C1964   1.406       .  A
C1959      H1966   1.083       .  S
C1960      C1961   1.413       .  A
C1961      C1962   1.405       .  A
C1961     Br1968   1.918       .  S
C1962      C1963   1.404       .  A
C1962      H1967   1.083       .  S
C1963      C1964   1.416       .  A
C1964     Br1965   1.919       .  S
C1969      C1970   1.402       .  A
C1969      C1974   1.403       .  A
C1969      H1976   1.083       .  S
C1970      C1971   1.416       .  A
C1971      C1972   1.405       .  A
C1971     Br1978   1.921       .  S
C1972      C1973   1.403       .  A
C1972      H1977   1.083       .  S
C1973      C1974   1.414       .  A
C1974     Br1975   1.919       .  S
C1979      C1980   1.402       .  A
C1979      C1984   1.394       .  A
C1979      H1986   1.079       .  S
C1980      C1981   1.406       .  A
C1981      C1982   1.397       .  A
C1981     Br1988   1.916       .  S
C1982      C1983   1.401       .  A
C1982      H1987   1.077       .  S
C1983      C1984   1.403       .  A
C1984     Br1985   1.914       .  S
C1989      C1990   1.407       .  A
C1989      C1994   1.404       .  A
C1989      H1996   1.084       .  S
C1990      C1991   1.408       .  A
C1991      C1992   1.401       .  A
C1991     Br1998   1.915       .  S
C1992      C1993   1.408       .  A
C1992      H1997   1.083       .  S
C1993      C1994   1.412       .  A
C1994     Br1995   1.918       .  S
C1999      C2000   1.406       .  A
C1999      C2004   1.404       .  A
C1999      H2006   1.084       .  S
C2000      C2001   1.412       .  A
C2001      C2002   1.404       .  A
C2001     Br2008   1.914       .  S
C2002      C2003   1.405       .  A
C2002      H2007   1.084       .  S
C2003      C2004   1.411       .  A
C2004     Br2005   1.915       .  S
C2009      C2010   1.401       .  A
C2009      C2014   1.400       .  A
C2009      H2016   1.082       .  S
C2010      C2011   1.416       .  A
C2011      C2012   1.408       .  A
C2011     Br2018   1.920       .  S
C2012      C2013   1.404       .  A
C2012      H2017   1.083       .  S
C2013      C2014   1.416       .  A
C2014     Br2015   1.920       .  S
C2019      C2020   1.403       .  A
C2019      C2024   1.403       .  A
C2019      H2026   1.082       .  S
C2020      C2021   1.406       .  A
C2021      C2022   1.400       .  A
C2021     Br2028   1.918       .  S
C2022      C2023   1.404       .  A
C2022      H2027   1.076       .  S
C2023      C2024   1.413       .  A
C2024     Br2025   1.919       .  S
C2029      C2030   1.404       .  A
C2029      C2034   1.397       .  A
C2029      H2036   1.080       .  S
C2030      C2031   1.408       .  A
C2031      C2032   1.396       .  A
C2031     Br2038   1.916       .  S
C2032      C2033   1.399       .  A
C2032      H2037   1.078       .  S
C2033      C2034   1.403       .  A
C2034     Br2035   1.915       .  S
C2039      C2040   1.406       .  A
C2039      C2044   1.404       .  A
C2039      H2046   1.084       .  S
C2040      C2041   1.406       .  A
C2041      C2042   1.399       .  A
C2041     Br2048   1.917       .  S
C2042      C2043   1.409       .  A
C2042      H2047   1.083       .  S
C2043      C2044   1.413       .  A
C2044     Br2045   1.919       .  S
C2049      C2050   1.408       .  A
C2049      C2054   1.406       .  A
C2049      H2056   1.084       .  S
C2050      C2051   1.408       .  A
C2051      C2052   1.405       .  A
C2051     Br2058   1.918       .  S
C2052      C2053   1.412       .  A
C2052      H2057   1.082       .  S
C2053      C2054   1.417       .  A
C2054     Br2055   1.919       .  S
C2059      C2060   1.407       .  A
C2059      C2064   1.401       .  A
C2059      H2066   1.083       .  S
C2060      C2061   1.415       .  A
C2061      C2062   1.396       .  A
C2061     Br2068   1.917       .  S
C2062      C2063   1.396       .  A
C2062      H2067   1.083       .  S
C2063      C2064   1.403       .  A
C2064     Br2065   1.914       .  S
C2069      C2070   1.402       .  A
C2069      C2074   1.404       .  A
C2069      H2076   1.083       .  S
C2070      C2071   1.405       .  A
C2071      C2072   1.398       .  A
C2071     Br2078   1.920       .  S
C2072      C2073   1.408       .  A
C2072      H2077   1.083       .  S
C2073      C2074   1.414       .  A
C2074     Br2075   1.918       .  S
C2079      C2080   1.403       .  A
C2079      C2084   1.405       .  A
C2079      H2086   1.082       .  S
C2080      C2081   1.405       .  A
C2081      C2082   1.398       .  A
C2081     Br2088   1.918       .  S
C2082      C2083   1.405       .  A
C2082      H2087   1.072       .  S
C2083      C2084   1.416       .  A
C2084     Br2085   1.921       .  S
C2089      C2090   1.402       .  A
C2089      C2094   1.406       .  A
C2089      H2096   1.083       .  S
C2090      C2091   1.405       .  A
C2091      C2092   1.395       .  A
C2091     Br2098   1.921       .  S
C2092      C2093   1.407       .  A
C2092      H2097   1.083       .  S
C2093      C2094   1.416       .  A
C2094     Br2095   1.918       .  S
C2099      C2100   1.404       .  A
C2099      C2104   1.401       .  A
C2099      H2106   1.083       .  S
C2100      C2101   1.411       .  A
C2101      C2102   1.410       .  A
C2101     Br2108   1.904       .  S
C2102      C2103   1.409       .  A
C2102      H2107   1.083       .  S
C2103      C2104   1.416       .  A
C2104     Br2105   1.922       .  S
C2109      C2110   1.405       .  A
C2109      C2114   1.396       .  A
C2109      H2116   1.083       .  S
C2110      C2111   1.417       .  A
C2111      C2112   1.401       .  A
C2111     Br2118   1.916       .  S
C2112      C2113   1.398       .  A
C2112      H2117   1.083       .  S
C2113      C2114   1.404       .  A
C2114     Br2115   1.915       .  S
C2119      C2120   1.411       .  A
C2119      C2124   1.406       .  A
C2119      H2126   1.083       .  S
C2120      C2121   1.415       .  A
C2121      C2122   1.404       .  A
C2121     Br2128   1.919       .  S
C2122      C2123   1.407       .  A
C2122      H2127   1.084       .  S
C2123      C2124   1.409       .  A
C2124     Br2125   1.917       .  S
C2129      C2130   1.406       .  A
C2129      C2134   1.397       .  A
C2129      H2136   1.083       .  S
C2130      C2131   1.411       .  A
C2131      C2132   1.407       .  A
C2131     Br2138   1.917       .  S
C2132      C2133   1.407       .  A
C2132      H2137   1.082       .  S
C2133      C2134   1.409       .  A
C2134     Br2135   1.921       .  S
C2139      C2140   1.405       .  A
C2139      C2144   1.397       .  A
C2139      H2146   1.082       .  S
C2140      C2141   1.412       .  A
C2141      C2142   1.398       .  A
C2141     Br2148   1.911       .  S
C2142      C2143   1.397       .  A
C2142      H2147   1.083       .  S
C2143      C2144   1.407       .  A
C2144     Br2145   1.919       .  S
C2149      C2150   1.403       .  A
C2149      C2154   1.408       .  A
C2149      H2156   1.083       .  S
C2150      C2151   1.414       .  A
C2151      C2152   1.403       .  A
C2151     Br2158   1.920       .  S
C2152      C2153   1.405       .  A
C2152      H2157   1.083       .  S
C2153      C2154   1.419       .  A
C2154     Br2155   1.919       .  S
C2159      C2160   1.410       .  A
C2159      C2164   1.411       .  A
C2159      H2166   1.076       .  S
C2160      C2161   1.414       .  A
C2161      C2162   1.400       .  A
C2161     Br2168   1.921       .  S
C2162      C2163   1.401       .  A
C2162      H2167   1.081       .  S
C2163      C2164   1.410       .  A
C2164     Br2165   1.918       .  S
C2169      C2170   1.405       .  A
C2169      C2174   1.407       .  A
C2169      H2176   1.083       .  S
C2170      C2171   1.405       .  A
C2171      C2172   1.400       .  A
C2171     Br2178   1.917       .  S
C2172      C2173   1.412       .  A
C2172      H2177   1.082       .  S
C2173      C2174   1.417       .  A
C2174     Br2175   1.917       .  S
C2179      C2180   1.398       .  A
C2179      C2184   1.403       .  A
C2179      H2186   1.084       .  S
C2180      C2181   1.403       .  A
C2181      C2182   1.401       .  A
C2181     Br2188   1.917       .  S
C2182      C2183   1.411       .  A
C2182      H2187   1.084       .  S
C2183      C2184   1.419       .  A
C2184     Br2185   1.905       .  S
C2189      C2190   1.402       .  A
C2189      C2194   1.397       .  A
C2189      H2196   1.081       .  S
C2190      C2191   1.404       .  A
C2191      C2192   1.395       .  A
C2191     Br2198   1.914       .  S
C2192      C2193   1.401       .  A
C2192      H2197   1.082       .  S
C2193      C2194   1.405       .  A
C2194     Br2195   1.915       .  S
C2199      C2200   1.401       .  A
C2199      C2204   1.403       .  A
C2199      H2206   1.083       .  S
C2200      C2201   1.413       .  A
C2201      C2202   1.404       .  A
C2201     Br2208   1.920       .  S
C2202      C2203   1.405       .  A
C2202      H2207   1.083       .  S
C2203      C2204   1.418       .  A
C2204     Br2205   1.918       .  S
C2209      C2210   1.398       .  A
C2209      C2214   1.399       .  A
C2209      H2216   1.073       .  S
C2210      C2211   1.412       .  A
C2211      C2212   1.410       .  A
C2211     Br2218   1.917       .  S
C2212      C2213   1.408       .  A
C2212      H2217   1.083       .  S
C2213      C2214   1.419       .  A
C2214     Br2215   1.923       .  S
C2219      C2220   1.408       .  A
C2219      C2224   1.397       .  A
C2219      H2226   1.079       .  S
C2220      C2221   1.415       .  A
C2221      C2222   1.398       .  A
C2221     Br2228   1.922       .  S
C2222      C2223   1.401       .  A
C2222      H2227   1.083       .  S
C2223      C2224   1.410       .  A
C2224     Br2225   1.915       .  S
C2229      C2230   1.407       .  A
C2229      C2234   1.407       .  A
C2229      H2236   1.084       .  S
C2230      C2231   1.408       .  A
C2231      C2232   1.403       .  A
C2231     Br2238   1.919       .  S
C2232      C2233   1.411       .  A
C2232      H2237   1.083       .  S
C2233      C2234   1.416       .  A
C2234     Br2235   1.919       .  S
C2239      C2240   1.406       .  A
C2239      C2244   1.403       .  A
C2239      H2246   1.084       .  S
C2240      C2241   1.411       .  A
C2241      C2242   1.404       .  A
C2241     Br2248   1.910       .  S
C2242      C2243   1.404       .  A
C2242      H2247   1.084       .  S
C2243      C2244   1.409       .  A
C2244     Br2245   1.915       .  S
C2249      C2250   1.406       .  A
C2249      C2254   1.407       .  A
C2249      H2256   1.084       .  S
C2250      C2251   1.407       .  A
C2251      C2252   1.405       .  A
C2251     Br2258   1.917       .  S
C2252      C2253   1.411       .  A
C2252      H2257   1.083       .  S
C2253      C2254   1.415       .  A
C2254     Br2255   1.917       .  S
C2259      C2260   1.406       .  A
C2259      C2264   1.407       .  A
C2259      H2266   1.083       .  S
C2260      C2261   1.409       .  A
C2261      C2262   1.401       .  A
C2261     Br2268   1.920       .  S
C2262      C2263   1.405       .  A
C2262      H2267   1.084       .  S
C2263      C2264   1.412       .  A
C2264     Br2265   1.918       .  S
C2269      C2270   1.404       .  A
C2269      C2274   1.397       .  A
C2269      H2276   1.075       .  S
C2270      C2271   1.406       .  A
C2271      C2272   1.397       .  A
C2271     Br2278   1.916       .  S
C2272      C2273   1.401       .  A
C2272      H2277   1.079       .  S
C2273      C2274   1.402       .  A
C2274     Br2275   1.915       .  S
C2279      C2280   1.408       .  A
C2279      C2284   1.407       .  A
C2279      H2286   1.084       .  S
C2280      C2281   1.409       .  A
C2281      C2282   1.402       .  A
C2281     Br2288   1.916       .  S
C2282      C2283   1.411       .  A
C2282      H2287   1.083       .  S
C2283      C2284   1.416       .  A
C2284     Br2285   1.918       .  S
C2289      C2290   1.399       .  A
C2289      C2294   1.403       .  A
C2289      H2296   1.083       .  S
C2290      C2291   1.411       .  A
C2291      C2292   1.405       .  A
C2291     Br2298   1.918       .  S
C2292      C2293   1.405       .  A
C2292      H2297   1.083       .  S
C2293      C2294   1.419       .  A
C2294     Br2295   1.921       .  S
C2299      C2300   1.396       .  A
C2299      C2304   1.395       .  A
C2299      H2306   1.083       .  S
C2300      C2301   1.409       .  A
C2301      C2302   1.402       .  A
C2301     Br2308   1.918       .  S
C2302      C2303   1.404       .  A
C2302      H2307   1.083       .  S
C2303      C2304   1.408       .  A
C2304     Br2305   1.906       .  S
C2309      C2310   1.398       .  A
C2309      C2314   1.403       .  A
C2309      H2316   1.082       .  S
C2310      C2311   1.411       .  A
C2311      C2312   1.404       .  A
C2311     Br2318   1.919       .  S
C2312      C2313   1.406       .  A
C2312      H2317   1.083       .  S
C2313      C2314   1.424       .  A
C2314     Br2315   1.922       .  S
C2319      C2320   1.401       .  A
C2319      C2324   1.401   1_455  A
C2319      H2326   1.083       .  S
C2320      C2321   1.407       .  A
C2321      C2322   1.403       .  A
C2321     Br2328   1.918       .  S
C2322      C2323   1.404   1_455  A
C2322      H2327   1.075   1_455  S
C2323      C2324   1.414       .  A
C2324     Br2325   1.920       .  S
C2329      C2330   1.407       .  A
C2329      C2334   1.402       .  A
C2329      H2336   1.084       .  S
C2330      C2331   1.410       .  A
C2331      C2332   1.406       .  A
C2331     Br2338   1.917       .  S
C2332      C2333   1.409       .  A
C2332      H2337   1.083       .  S
C2333      C2334   1.408       .  A
C2334     Br2335   1.918       .  S
C2339      C2340   1.402   1_455  A
C2339      C2344   1.407       .  A
C2339      H2346   1.084       .  S
C2340      C2341   1.408       .  A
C2341      C2342   1.399   1_655  A
C2341     Br2348   1.920       .  S
C2342      C2343   1.409       .  A
C2342      H2347   1.083   1_455  S
C2343      C2344   1.417       .  A
C2344     Br2345   1.910       .  S
C2349      C2350   1.407       .  A
C2349      C2354   1.397       .  A
C2349      H2356   1.078       .  S
C2350      C2351   1.408       .  A
C2351      C2352   1.396       .  A
C2351     Br2358   1.916       .  S
C2352      C2353   1.400       .  A
C2352      H2357   1.082       .  S
C2353      C2354   1.400       .  A
C2354     Br2355   1.914       .  S
C2359      C2360   1.401       .  A
C2359      C2364   1.403       .  A
C2359      H2366   1.082       .  S
C2360      C2361   1.413       .  A
C2361      C2362   1.404       .  A
C2361     Br2368   1.919       .  S
C2362      C2363   1.404       .  A
C2362      H2367   1.083       .  S
C2363      C2364   1.416       .  A
C2364     Br2365   1.920       .  S
C2369      C2370   1.404       .  A
C2369      C2374   1.407       .  A
C2369      H2376   1.083       .  S
C2370      C2371   1.419       .  A
C2371      C2372   1.408       .  A
C2371     Br2378   1.920   1_556  S
C2372      C2373   1.403       .  A
C2372      H2377   1.083       .  S
C2373      C2374   1.417       .  A
C2374     Br2375   1.917       .  S
C2379      C2380   1.400       .  A
C2379      C2384   1.399       .  A
C2379      H2386   1.083       .  S
C2380      C2381   1.399       .  A
C2381      C2382   1.393       .  A
C2381     Br2388   1.917       .  S
C2382      C2383   1.402       .  A
C2382      H2387   1.071       .  S
C2383      C2384   1.412       .  A
C2384     Br2385   1.916   1_556  S
C2389      C2390   1.406       .  A
C2389      C2394   1.410       .  A
C2389      H2396   1.081       .  S
C2390      C2391   1.408       .  A
C2391      C2392   1.400       .  A
C2391     Br2398   1.920       .  S
C2392      C2393   1.408       .  A
C2392      H2397   1.083       .  S
C2393      C2394   1.414       .  A
C2394     Br2395   1.918       .  S
C2399      C2400   1.402       .  A
C2399      C2404   1.402   1_554  A
C2399      H2406   1.082       .  S
C2400      C2401   1.408       .  A
C2401      C2402   1.404       .  A
C2401     Br2408   1.918       .  S
C2402      C2403   1.406   1_554  A
C2402      H2407   1.079       .  S
C2403      C2404   1.413       .  A
C2404     Br2405   1.919       .  S
C2409      C2410   1.406       .  A
C2409      C2414   1.404       .  A
C2409      H2416   1.084       .  S
C2410      C2411   1.407       .  A
C2411      C2412   1.401       .  A
C2411     Br2418   1.917       .  S
C2412      C2413   1.410       .  A
C2412      H2417   1.083       .  S
C2413      C2414   1.416       .  A
C2414     Br2415   1.919       .  S
C2419      C2420   1.409       .  A
C2419      C2424   1.406   1_554  A
C2419      H2426   1.084   1_554  S
C2420      C2421   1.416       .  A
C2421      C2422   1.410       .  A
C2421     Br2428   1.913       .  S
C2422      C2423   1.405       .  A
C2422      H2427   1.084       .  S
C2423      C2424   1.412   1_554  A
C2424     Br2425   1.922   1_565  S
C2429      C2430   1.397       .  A
C2429      C2434   1.395       .  A
C2429      H2436   1.080       .  S
C2430      C2431   1.402       .  A
C2431      C2432   1.401       .  A
C2431     Br2438   1.914       .  S
C2432      C2433   1.407       .  A
C2432      H2437   1.078       .  S
C2433      C2434   1.409       .  A
C2434     Br2435   1.917       .  S
C2439      C2440   1.405       .  A
C2439      C2444   1.411       .  A
C2439      H2446   1.082       .  S
C2440      C2441   1.419       .  A
C2441      C2442   1.408       .  A
C2441     Br2448   1.920       .  S
C2442      C2443   1.403       .  A
C2442      H2447   1.083       .  S
C2443      C2444   1.418       .  A
C2444     Br2445   1.919       .  S
