geometry optimzed in LAMMPS
_audit_creation_date              2020-12-01 
_audit_creation_method            'lammps2cif' 
_symmetry_space_group_name_H-M    'P1' 
_symmetry_Int_Tables_number       1 
_symmetry_cell_setting            triclinic 
loop_ 
_symmetry_equiv_pos_as_xyz 
  x,y,z 
_cell_length_a                    37.20144497 
_cell_length_b                    37.10056818851961 
_cell_length_c                    37.45969170967855 
_cell_angle_alpha                 89.68829656728144 
_cell_angle_beta                  90.20406284968206 
_cell_angle_gamma                 90.16238766804771 
loop_ 
_atom_site_label 
_atom_site_type_symbol 
_atom_site_fract_x 
_atom_site_fract_y 
_atom_site_fract_z 
_atom_site_charge 
Fe1        Fe  0.76901237  0.82023083  0.61567806     1.65800
Fe2        Fe  0.72148666  0.85611118  0.54696850     1.73200
Fe3        Fe  0.78195794  0.78894828  0.53117073     1.54400
O4          O  0.83278864  0.80141326  0.55052546    -0.82500
O5          O  0.70195513  0.82205316  0.50763564    -0.80800
O6          O  0.82400139  0.81683585  0.60740217    -0.85000
O7          O  0.76487159  0.76540724  0.61766322    -0.79900
O8          O  0.78730440  0.82937400  0.49340508    -0.81600
O9          O  0.68252878  0.83556113  0.58084620    -0.84400
C10         C  0.77217303  0.73967147  0.59690988     0.96400
C11         C  0.84456452  0.80913265  0.58148561     1.03800
O12         O  0.75771331  0.82174093  0.56467310    -1.13400
O13         O  0.73275874  0.89610635  0.58445034    -0.75800
O14         O  0.77465113  0.87517246  0.62093716    -0.79300
O15         O  0.78011568  0.74430477  0.56435322    -0.80000
C16         C  0.75366764  0.90011505  0.61101869     0.95300
O17         O  0.71506312  0.82259004  0.62962368    -0.77900
O18         O  0.75829148  0.87843592  0.51156327    -0.83100
C19         C  0.70666148  0.78952085  0.49856677     0.97900
C20         C  0.77953363  0.86254977  0.49012191     1.03800
O21         O  0.73401088  0.77174260  0.50858594    -0.78800
C22         C  0.68510432  0.82637112  0.61348914     1.02100
Fe23       Fe  0.80316717  0.88286356  0.27764365     1.65800
Fe24       Fe  0.77552314  0.96916115  0.28875103     1.73200
Fe25       Fe  0.83813948  0.94848048  0.22471128     1.54400
O26         O  0.88145548  0.91732250  0.24114292    -0.82500
O27         O  0.76032240  0.99663339  0.24257388    -0.80800
O28         O  0.85573181  0.87031156  0.26660097    -0.85000
O29         O  0.78852156  0.86888110  0.22642214    -0.79900
O30         O  0.85945158  0.99064878  0.25421479    -0.81600
O31         O  0.72808538  0.93906390  0.28542989    -0.84400
C32         C  0.79896723  0.87998223  0.19590735     0.96400
C33         C  0.88311013  0.88560460  0.25372235     1.03800
O34         O  0.80558808  0.93371416  0.26355356    -1.13400
O35         O  0.78708099  0.94598584  0.33818051    -0.75800
O36         O  0.81727335  0.89495822  0.32951436    -0.79300
O37         O  0.81925310  0.90747506  0.19169095    -0.80000
C38         C  0.80405004  0.91868942  0.35012084     0.95300
O39         O  0.75011228  0.88400563  0.29192781    -0.77900
O40         O  0.81879070  0.00362319  0.29575842    -0.83100
C41         C  0.77303106  0.99927795  0.21119006     0.97900
C42         C  0.84880790  0.00928300  0.28059567     1.03800
O43         O  0.80075128  0.98222089  0.20151329    -0.78800
C44         C  0.72416566  0.90583934  0.29267550     1.02100
Fe45       Fe  0.11487598  0.78861383  0.67794163     1.65800
Fe46       Fe  0.02908028  0.79950510  0.70836615     1.73200
Fe47       Fe  0.04850039  0.73297521  0.64816417     1.54400
O48         O  0.08377203  0.74365971  0.60663514    -0.82500
O49         O  0.00670980  0.75266987  0.72865813    -0.80800
O50         O  0.12040319  0.78763833  0.62310306    -0.85000
O51         O  0.13210548  0.73609549  0.68270694    -0.79900
O52         O  0.00889474  0.76415775  0.62364604    -0.81600
O53         O  0.06209629  0.80076295  0.75318423    -0.84400
C54         C  0.11828745  0.70476232  0.68173592     0.96400
C55         C  0.10974743  0.76488828  0.60024019     1.03800
O56         O  0.06408864  0.77392540  0.67803622    -1.13400
O57         O  0.04697601  0.85011916  0.69288397    -0.75800
O58         O  0.10338749  0.84297464  0.67461193    -0.79300
O59         O  0.08627056  0.69877157  0.67119802    -0.80000
C60         C  0.07680818  0.86289444  0.68232143     0.95300
O61         O  0.11721200  0.79076932  0.73249870    -0.77900
O62         O  0.99151983  0.80097354  0.66739282    -0.83100
C63         C  0.99911316  0.72271189  0.71442187     0.97900
C64         C  0.98738971  0.78753281  0.63644138     1.03800
O65         O  0.01144997  0.71364568  0.68433558    -0.78800
C66         C  0.09556594  0.79620503  0.75785776     1.02100
Fe67       Fe  0.21295739  0.19079798  0.37234404     1.65800
Fe68       Fe  0.20389941  0.21936601  0.45745374     1.73200
Fe69       Fe  0.26523640  0.15340591  0.43712553     1.54400
O70         O  0.24485926  0.11030245  0.40785245    -0.82500
O71         O  0.25135840  0.23158286  0.48404710    -0.80800
O72         O  0.22115679  0.13738282  0.36081256    -0.85000
O73         O  0.26502049  0.20240179  0.35800858    -0.79900
O74         O  0.23628309  0.13540946  0.48135736    -0.81600
O75         O  0.21092473  0.26635340  0.42786633    -0.84400
C76         C  0.29526120  0.19014898  0.36830428     0.96400
C77         C  0.23239635  0.10926896  0.37626180     1.03800
O78         O  0.22731843  0.18763585  0.42255153    -1.13400
O79         O  0.15310884  0.21184246  0.43449144    -0.75800
O80         O  0.15978809  0.18033536  0.38432295    -0.79300
O81         O  0.29864871  0.16895171  0.39502415    -0.80000
C82         C  0.14000787  0.19559238  0.40742011     0.95300
O83         O  0.20202001  0.24477202  0.37350670    -0.77900
O84         O  0.19420493  0.17663109  0.49172143    -0.83100
C85         C  0.28303323  0.21885647  0.48524380     0.97900
C86         C  0.20995285  0.14718579  0.49950889     1.03800
O87         O  0.29173471  0.19091801  0.46807531    -0.78800
C88         C  0.20360308  0.27073448  0.39511830     1.02100
Fe89       Fe  0.18493406  0.12927570  0.71872155     1.65800
Fe90       Fe  0.14286419  0.06201110  0.76485490     1.73200
Fe91       Fe  0.20828767  0.04184537  0.70336620     1.54400
O92         O  0.19818109  0.06626021  0.65410118    -0.82500
O93         O  0.17807562  0.02586462  0.78838567    -0.80800
O94         O  0.17673612  0.12149263  0.66448841    -0.85000
O95         O  0.23936492  0.12668166  0.71150085    -0.79900
O96         O  0.16506653  0.00810873  0.69452120    -0.81600
O97         O  0.15976655  0.10045196  0.80141823    -0.84400
C98         C  0.26340323  0.10305608  0.70815410     0.96400
C99         C  0.18575987  0.09642042  0.64316069     1.03800
O100        O  0.17862679  0.07763291  0.72892558    -1.13400
O101        O  0.10240204  0.09639698  0.74762684    -0.75800
O102        O  0.13166890  0.14325067  0.72531110    -0.79300
O103        O  0.25651852  0.06965170  0.70779614    -0.80000
C104        C  0.10312019  0.12895442  0.73700472     0.95300
O105        O  0.19426288  0.14010394  0.77179276    -0.77900
O106        O  0.12150796  0.02203852  0.73236761    -0.83100
C107        C  0.20715647  0.01013587  0.78033217     0.97900
C108        C  0.13382468  0.00309673  0.70700888     1.03800
O109        O  0.22181006  0.01410492  0.74989374    -0.78800
C110        C  0.18008386  0.12808809  0.80031039     1.02100
Fe111      Fe  0.87024689  0.22204789  0.30977745     1.65800
Fe112      Fe  0.93520871  0.27751566  0.34303164     1.73200
Fe113      Fe  0.95710658  0.21262219  0.28218558     1.54400
O114        O  0.93960942  0.16137224  0.29683555    -0.82500
O115        O  0.97253298  0.29825511  0.30789235    -0.80800
O116        O  0.88199717  0.16799978  0.31185074    -0.85000
O117        O  0.86944456  0.22112258  0.25500751    -0.79900
O118        O  0.99382472  0.21159410  0.32381652    -0.81600
O119        O  0.89752563  0.31159932  0.32001990    -0.84400
C120        C  0.89212643  0.21483238  0.23075384     0.96400
C121        C  0.90904320  0.14844457  0.30520650     1.03800
O122        O  0.92088190  0.23712700  0.31180978    -1.13400
O123        O  0.89908379  0.26511301  0.38328890    -0.75800
O124        O  0.86330667  0.22144420  0.36435443    -0.79300
O125        O  0.92536212  0.21054496  0.23678625    -0.80000
C126        C  0.87284580  0.24368228  0.38806240     0.95300
O127        O  0.85250601  0.27410299  0.30622869    -0.77900
O128        O  0.97478208  0.24673277  0.36804199    -0.83100
C129        C  0.98454522  0.29070060  0.27728198     0.97900
C130        C  0.99725561  0.22450777  0.35508171     1.03800
O131        O  0.97841026  0.26050726  0.26268948    -0.78800
C132        C  0.86588719  0.30545145  0.30860824     1.02100
Fe133      Fe  0.71570913  0.32559349  0.61490406     1.65800
Fe134      Fe  0.70308348  0.29316053  0.53090407     1.73200
Fe135      Fe  0.76592606  0.35854217  0.54728429     1.54400
O136        O  0.75533673  0.39889916  0.58426199    -0.82500
O137        O  0.75077089  0.27420524  0.50980637    -0.80800
O138        O  0.70996605  0.38052335  0.61772161    -0.85000
O139        O  0.76882433  0.32837313  0.63101421    -0.79900
O140        O  0.73081462  0.38175745  0.51027383    -0.81600
O141        O  0.70339945  0.24902291  0.56560428    -0.84400
C142        C  0.79925099  0.32912001  0.61574956     0.96400
C143        C  0.73311628  0.40410210  0.60935456     1.03800
O144        O  0.72800249  0.32576158  0.56429565    -1.13400
O145        O  0.65220822  0.30760758  0.54832353    -0.75800
O146        O  0.66137874  0.32164186  0.60525758    -0.79300
O147        O  0.80318454  0.33676910  0.58281467    -0.80000
C148        C  0.64048600  0.31532739  0.57913410     0.95300
O149        O  0.72024868  0.27106738  0.61824494    -0.77900
O150        O  0.69973808  0.33345017  0.49228778    -0.83100
C151        C  0.77884695  0.29100573  0.50004874     0.97900
C152        C  0.70903579  0.36635563  0.48868945     1.03800
O153        O  0.78469011  0.32346463  0.50883065    -0.78800
C154        C  0.71204853  0.24493694  0.59823190     1.02100
Fe155      Fe  0.66830200  0.38166460  0.27344766     1.65800
Fe156      Fe  0.63815688  0.44964395  0.22178904     1.73200
Fe157      Fe  0.70302650  0.46589860  0.28332763     1.54400
O158        O  0.68771290  0.45012856  0.33420976    -0.82500
O159        O  0.67294502  0.48877586  0.20313977    -0.80800
O160        O  0.67437940  0.39196599  0.32755142    -0.85000
O161        O  0.72283275  0.37673483  0.26769708    -0.79900
O162        O  0.66416111  0.50576049  0.28468307    -0.81600
O163        O  0.66052368  0.41414248  0.18601956    -0.84400
C164        C  0.74897050  0.39689701  0.27640757     0.96400
C165        C  0.68106512  0.41910774  0.34714197     1.03800
O166        O  0.66988969  0.43240711  0.25989082    -1.13400
O167        O  0.59784134  0.41261306  0.23233222    -0.75800
O168        O  0.61335861  0.38141895  0.28030467    -0.79300
O169        O  0.74524096  0.42974338  0.28494535    -0.80000
C170        C  0.59077175  0.38929777  0.25613064     0.95300
O171        O  0.66277260  0.36496759  0.22074496    -0.77900
O172        O  0.61504052  0.48613817  0.25615789    -0.83100
C173        C  0.70578932  0.49637575  0.20810147     0.97900
C174        C  0.63106316  0.50862436  0.27636543     1.03800
O175        O  0.72291874  0.48490480  0.23514966    -0.78800
C176        C  0.66422305  0.38036833  0.19030136     1.02100
Fe177      Fe  0.31587444  0.62633530  0.71712883     1.65800
Fe178      Fe  0.28060506  0.54240276  0.70800075     1.73200
Fe179      Fe  0.34815437  0.55749026  0.76640750     1.54400
O180        O  0.38818934  0.59476662  0.75557789    -0.82500
O181        O  0.26189362  0.52538667  0.75723944    -0.80800
O182        O  0.37072823  0.62709778  0.70908470    -0.85000
O183        O  0.32238308  0.64192879  0.77026696    -0.79900
O184        O  0.36987093  0.52201290  0.73012478    -0.81600
O185        O  0.23845472  0.57899948  0.70607880    -0.84400
C186        C  0.32294766  0.62588974  0.80051926     0.96400
C187        C  0.39425642  0.61877409  0.73220441     1.03800
O188        O  0.31483336  0.57557752  0.73011417    -1.13400
O189        O  0.29533424  0.55744254  0.65698176    -0.75800
O190        O  0.30876083  0.61589569  0.66303200    -0.79300
O191        O  0.32731153  0.59208846  0.80392397    -0.80000
C192        C  0.30163518  0.58847908  0.64387546     0.95300
O193        O  0.26132753  0.63152811  0.72366785    -0.77900
O194        O  0.31881379  0.50145574  0.70626699    -0.83100
C195        C  0.28024528  0.51319590  0.78318819     0.97900
C196        C  0.35258107  0.49895678  0.71166729     1.03800
O197        O  0.31390240  0.51790284  0.78508755    -0.78800
C198        C  0.23491144  0.61186128  0.71464664     1.02100
Fe199      Fe  0.37334401  0.28218611  0.67628573     1.65800
Fe200      Fe  0.44231126  0.23301022  0.64437143     1.73200
Fe201      Fe  0.45769182  0.29652201  0.70806962     1.54400
O202        O  0.43964591  0.34669302  0.69153171    -0.82500
O203        O  0.48244575  0.21629912  0.67901621    -0.80800
O204        O  0.38203468  0.33722040  0.67792933    -0.85000
O205        O  0.37027318  0.28017077  0.73045463    -0.79900
O206        O  0.49640797  0.29847725  0.66845954    -0.81600
O207        O  0.40877867  0.19513278  0.66745629    -0.84400
C208        C  0.39014563  0.29021085  0.75604819     0.96400
C209        C  0.40840445  0.35825683  0.68396004     1.03800
O210        O  0.42437807  0.27078819  0.67633118    -1.13400
O211        O  0.40426634  0.24142711  0.60419816    -0.75800
O212        O  0.36981435  0.28618477  0.62172496    -0.79300
O213        O  0.42305438  0.29833078  0.75179850    -0.80000
C214        C  0.37848399  0.26314589  0.59869035     0.95300
O215        O  0.35913985  0.22792666  0.67620638    -0.77900
O216        O  0.47749642  0.26903888  0.62018186    -0.83100
C217        C  0.49111566  0.22227683  0.71123083     0.97900
C218        C  0.49970410  0.29002804  0.63576184     1.03800
O219        O  0.47909722  0.24910468  0.72829770    -0.78800
C220        C  0.37588930  0.19800377  0.67597193     1.02100
Fe221      Fe  0.61113128  0.72630057  0.31111638     1.65800
Fe222      Fe  0.52598548  0.70992920  0.28277787     1.73200
Fe223      Fe  0.54266852  0.77369778  0.34556381     1.54400
O224        O  0.58243531  0.76433745  0.38392065    -0.82500
O225        O  0.50375999  0.75678978  0.26296404    -0.80800
O226        O  0.61552855  0.71874199  0.36542429    -0.85000
O227        O  0.62507307  0.78013899  0.31636603    -0.79900
O228        O  0.50871331  0.73707973  0.37041808    -0.81600
O229        O  0.56040180  0.70870411  0.23876377    -0.84400
C230        C  0.60878929  0.81023150  0.31748329     0.96400
C231        C  0.60822015  0.74229677  0.38858045     1.03800
O232        O  0.55989293  0.73642814  0.31311787    -1.13400
O233        O  0.54493884  0.66059858  0.29911454    -0.75800
O234        O  0.60365856  0.67124897  0.30518553    -0.79300
O235        O  0.57515494  0.81272092  0.32247242    -0.80000
C236        C  0.57709477  0.64982233  0.30211632     0.95300
O237        O  0.61200052  0.73334223  0.25691467    -0.77900
O238        O  0.48770922  0.70689490  0.32326915    -0.83100
C239        C  0.49234278  0.78388888  0.27993604     0.97900
C240        C  0.48600519  0.71577570  0.35606499     1.03800
O241        O  0.50153704  0.79033315  0.31194870    -0.78800
C242        C  0.59200478  0.72044086  0.23267829     1.02100
Fe243      Fe  0.27100638  0.68097937  0.37613189     1.65800
Fe244      Fe  0.21781907  0.64974625  0.44266985     1.73200
Fe245      Fe  0.28320895  0.71218599  0.46058131     1.54400
O246        O  0.33373826  0.69623451  0.44359393    -0.82500
O247        O  0.19904239  0.68567771  0.48037335    -0.80800
O248        O  0.32566322  0.68349579  0.38609337    -0.85000
O249        O  0.26837607  0.73592355  0.37289122    -0.79900
O250        O  0.28467283  0.67165608  0.49875250    -0.81600
O251        O  0.18219341  0.67257012  0.40625563    -0.84400
C252        C  0.27750525  0.76124289  0.39364566     0.96400
C253        C  0.34595785  0.68935065  0.41275159     1.03800
O254        O  0.25753667  0.68102502  0.42653426    -1.13400
O255        O  0.22839387  0.60879758  0.40621177    -0.75800
O256        O  0.27538677  0.62600588  0.37422338    -0.79300
O257        O  0.28536517  0.75632072  0.42632489    -0.80000
C258        C  0.25145088  0.60302177  0.38196894     0.95300
O259        O  0.21787128  0.67907673  0.35880787    -0.77900
O260        O  0.25071489  0.62528915  0.48078277    -0.83100
C261        C  0.20678960  0.71735678  0.49051554     0.97900
C262        C  0.27332247  0.63944897  0.50231582     1.03800
O263        O  0.23590266  0.73272149  0.48144733    -0.78800
C264        C  0.18694265  0.67883447  0.37320290     1.02100
Fe265      Fe  0.80839814  0.62820108  0.77447087     1.65800
Fe266      Fe  0.84284608  0.56180660  0.72358042     1.73200
Fe267      Fe  0.77996870  0.54187519  0.78685031     1.54400
O268        O  0.79495241  0.55984315  0.83725861    -0.82500
O269        O  0.80914153  0.52152622  0.70521064    -0.80800
O270        O  0.80644298  0.61834268  0.82870665    -0.85000
O271        O  0.75348369  0.62908116  0.77145032    -0.79900
O272        O  0.82143067  0.50488895  0.78836411    -0.81600
O273        O  0.81872211  0.59598958  0.68736138    -0.84400
C274        C  0.72912904  0.60729292  0.78113390     0.96400
C275        C  0.80138321  0.59133970  0.84906285     1.03800
O276        O  0.81041509  0.57729026  0.76195078    -1.13400
O277        O  0.88207267  0.60030360  0.73388784    -0.75800
O278        O  0.86324867  0.63373988  0.77883025    -0.79300
O279        O  0.73501457  0.57454885  0.78893672    -0.80000
C280        C  0.88710030  0.62520587  0.75643114     0.95300
O281        O  0.80877631  0.64402661  0.72166957    -0.77900
O282        O  0.86823012  0.52617845  0.75761654    -0.83100
C283        C  0.77721935  0.51124869  0.71138643     0.97900
C284        C  0.85405999  0.50295754  0.77832223     1.03800
O285        O  0.76052356  0.52060128  0.73933097    -0.78800
C286        C  0.80897269  0.62841741  0.69154342     1.02100
Fe287      Fe  0.87248598  0.28593683  0.80943387     1.65800
Fe288      Fe  0.95828104  0.30144969  0.78261084     1.73200
Fe289      Fe  0.94100673  0.23989677  0.84722216     1.54400
O290        O  0.90040389  0.24815906  0.88446474    -0.82500
O291        O  0.97960117  0.25324200  0.76400761    -0.80800
O292        O  0.86524728  0.29147857  0.86374028    -0.85000
O293        O  0.85987678  0.23195794  0.81268310    -0.79900
O294        O  0.97303591  0.27798860  0.87206421    -0.81600
O295        O  0.92463080  0.30430082  0.73780240    -0.84400
C296        C  0.87674211  0.20233404  0.81603802     0.96400
C297        C  0.87376516  0.26913278  0.88799535     1.03800
O298        O  0.92371147  0.27596196  0.81301201    -1.13400
O299        O  0.93954850  0.35103779  0.79860136    -0.75800
O300        O  0.88073523  0.34084988  0.80595099    -0.79300
O301        O  0.90989292  0.20026791  0.82398398    -0.80000
C302        C  0.90763470  0.36196916  0.80374939     0.95300
O303        O  0.87204838  0.28137610  0.75478569    -0.77900
O304        O  0.99629570  0.30394889  0.82355278    -0.83100
C305        C  0.99137864  0.22704056  0.78271448     0.97900
C306        C  0.99655533  0.29789609  0.85708400     1.03800
O307        O  0.98365041  0.22377118  0.81555028    -0.78800
C308        C  0.89255859  0.29442694  0.73109186     1.02100
Fe309      Fe  0.77045200  0.68700049  0.11584692     1.65800
Fe310      Fe  0.78062929  0.71896364  0.03065601     1.73200
Fe311      Fe  0.71576315  0.65539838  0.04979614     1.54400
O312        O  0.72926506  0.61244304  0.08258450    -0.82500
O313        O  0.73343729  0.73658023  0.00654421    -0.80800
O314        O  0.76858700  0.63201339  0.12240412    -0.85000
O315        O  0.71818537  0.69233744  0.13283287    -0.79900
O316        O  0.74649335  0.63381502  0.00902727    -0.81600
O317        O  0.77845603  0.76438516  0.06304424    -0.84400
C318        C  0.68701726  0.68761684  0.11972123     0.96400
C319        C  0.74878719  0.60732248  0.10988100     1.03800
O320        O  0.75574292  0.68702017  0.06534356    -1.13400
O321        O  0.83174859  0.70668149  0.05015797    -0.75800
O322        O  0.82433531  0.68275309  0.10420323    -0.79300
O323        O  0.68149225  0.67473443  0.08879047    -0.80000
C324        C  0.84445562  0.69346430  0.07892310     0.95300
O325        O  0.77390753  0.74182597  0.11802014    -0.77900
O326        O  0.78526406  0.67735100  0.99395856    -0.83100
C327        C  0.70260027  0.72270927  0.00154775     0.97900
C328        C  0.77079982  0.64659495  0.98866851     1.03800
O329        O  0.69391273  0.69268656  0.01515766    -0.78800
C330        C  0.77645586  0.76814775  0.09665546     1.02100
Fe331      Fe  0.17573140  0.38292684  0.21597399     1.65800
Fe332      Fe  0.20521678  0.46871419  0.20313807     1.73200
Fe333      Fe  0.14082625  0.45028795  0.26482715     1.54400
O334        O  0.10176108  0.41166985  0.25394756    -0.82500
O335        O  0.22461972  0.48839474  0.25113947    -0.80800
O336        O  0.12098769  0.37836589  0.20920164    -0.85000
O337        O  0.17206466  0.36709698  0.26914142    -0.79900
O338        O  0.11639251  0.48599675  0.22967332    -0.81600
O339        O  0.24944766  0.43447606  0.20079199    -0.84400
C340        C  0.17087345  0.38299191  0.29915554     0.96400
C341        C  0.09701130  0.38644003  0.23158689     1.03800
O342        O  0.17384204  0.43396463  0.22761312    -1.13400
O343        O  0.18963615  0.45169759  0.15284443    -0.75800
O344        O  0.18040497  0.39280986  0.16162906    -0.79300
O345        O  0.16385758  0.41627280  0.30228186    -0.80000
C346        C  0.18441667  0.41999305  0.14113841     0.95300
O347        O  0.23034369  0.38149985  0.22171980    -0.77900
O348        O  0.16476067  0.50735653  0.20149494    -0.83100
C349        C  0.20724581  0.49867153  0.27833611     0.97900
C350        C  0.13156072  0.50923721  0.20952921     1.03800
O351        O  0.17456896  0.49033707  0.28324384    -0.78800
C352        C  0.25506924  0.40213404  0.21059677     1.02100
Fe353      Fe  0.11211549  0.72501394  0.17944730     1.65800
Fe354      Fe  0.04420678  0.77544000  0.14385910     1.73200
Fe355      Fe  0.02614141  0.71345957  0.20895973     1.54400
O356        O  0.04433291  0.66255330  0.19471505    -0.82500
O357        O  0.00579188  0.79552077  0.17811370    -0.80800
O358        O  0.10132907  0.67045323  0.17740264    -0.85000
O359        O  0.11429047  0.72238011  0.23411170    -0.79900
O360        O  0.98803720  0.71063265  0.16841502    -0.81600
O361        O  0.07993539  0.81235048  0.16473172    -0.84400
C362        C  0.09260298  0.71468249  0.25889488     0.96400
C363        C  0.07471528  0.65020867  0.18510415     1.03800
O364        O  0.06099101  0.73775518  0.17740309    -1.13400
O365        O  0.08044646  0.76398072  0.10385112    -0.75800
O366        O  0.12007818  0.72515797  0.12491523    -0.79300
O367        O  0.05901472  0.71161927  0.25394153    -0.80000
C368        C  0.10827250  0.74494839  0.09989312     0.95300
O369        O  0.12658159  0.77853166  0.18289704    -0.77900
O370        O  0.00708811  0.74087389  0.12060217    -0.83100
C371        C  0.99646318  0.79034033  0.21023146     0.97900
C372        C  0.98505814  0.71936388  0.13565105     1.03800
O373        O  0.00525650  0.76194623  0.22724863    -0.78800
C374        C  0.11132756  0.80876931  0.17772584     1.02100
Fe375      Fe  0.20933250  0.32370398  0.87456039     1.65800
Fe376      Fe  0.26660533  0.35397890  0.93930844     1.73200
Fe377      Fe  0.19926650  0.29398499  0.96022166     1.54400
O378        O  0.14876548  0.31048101  0.94302085    -0.82500
O379        O  0.28670720  0.31651049  0.97502542    -0.80800
O380        O  0.15564841  0.32874585  0.88676911    -0.85000
O381        O  0.20449875  0.26864088  0.87288635    -0.79900
O382        O  0.19907016  0.33538912  0.99678261    -0.81600
O383        O  0.29965524  0.33163178  0.90064277    -0.84400
C384        C  0.19855208  0.24349908  0.89505019     0.96400
C385        C  0.13593013  0.32162750  0.91350896     1.03800
O386        O  0.22497583  0.32392727  0.92471523    -1.13400
O387        O  0.25471587  0.39643890  0.90523287    -0.75800
O388        O  0.21186284  0.37856525  0.86828364    -0.79300
O389        O  0.19607436  0.24857725  0.92836406    -0.80000
C390        C  0.23368391  0.40223561  0.87909076     0.95300
O391        O  0.26127924  0.31800574  0.85673020    -0.77900
O392        O  0.23715861  0.37857380  0.97966902    -0.83100
C393        C  0.27692240  0.28640005  0.98785909     0.97900
C394        C  0.21340771  0.36626705  0.00096642     1.03800
O395        O  0.24612190  0.27308042  0.98169405    -0.78800
C396        C  0.29291852  0.31985094  0.86947427     1.02100
Fe397      Fe  0.61493061  0.78846588  0.80508229     1.65800
Fe398      Fe  0.55007989  0.73639868  0.84205144     1.73200
Fe399      Fe  0.52826147  0.79990413  0.77901178     1.54400
O400        O  0.55230743  0.84974951  0.78687301    -0.82500
O401        O  0.52079727  0.71011221  0.80308635    -0.80800
O402        O  0.60397971  0.84173808  0.81635159    -0.85000
O403        O  0.61284187  0.80028235  0.75156831    -0.79900
O404        O  0.49501406  0.80950737  0.82223712    -0.81600
O405        O  0.59322096  0.70415998  0.82908459    -0.84400
C406        C  0.59003366  0.79912015  0.72653113     0.96400
C407        C  0.58045873  0.86207598  0.80188925     1.03800
O408        O  0.56423204  0.77505137  0.80884154    -1.13400
O409        O  0.57826370  0.75765299  0.88500108    -0.75800
O410        O  0.62682517  0.77853418  0.85805034    -0.79300
O411        O  0.55687148  0.79340886  0.73189906    -0.80000
C412        C  0.61074893  0.76822729  0.88600522     0.95300
O413        O  0.62854013  0.73627736  0.79264023    -0.77900
O414        O  0.50516113  0.76354187  0.85906372    -0.83100
C415        C  0.50160031  0.72034189  0.77681635     0.97900
C416        C  0.48731291  0.79113917  0.84996468     1.03800
O417        O  0.50057870  0.75304255  0.76681927    -0.78800
C418        C  0.61956804  0.70689375  0.80780938     1.02100
Fe419      Fe  0.27370401  0.81433958  0.87431752     1.65800
Fe420      Fe  0.28665446  0.78717689  0.95981567     1.73200
Fe421      Fe  0.22342663  0.85149991  0.93937121     1.54400
O422        O  0.24141606  0.89463985  0.90822221    -0.82500
O423        O  0.24000672  0.77206639  0.98657610    -0.80800
O424        O  0.26121276  0.86634028  0.86078161    -0.85000
O425        O  0.22203543  0.79895871  0.86247360    -0.79900
O426        O  0.25317216  0.87157257  0.98199242    -0.81600
O427        O  0.28270718  0.73966575  0.93061187    -0.84400
C428        C  0.19226259  0.81228123  0.87247665     0.96400
C429        C  0.25076984  0.89475877  0.87566336     1.03800
O430        O  0.26130333  0.81779319  0.92482198    -1.13400
O431        O  0.33606002  0.79883708  0.93592076    -0.75800
O432        O  0.32600962  0.82894203  0.88481646    -0.79300
O433        O  0.18956394  0.83423039  0.89843730    -0.80000
C434        C  0.34721129  0.81562011  0.90813083     0.95300
O435        O  0.28895403  0.76170723  0.87604896    -0.77900
O436        O  0.29418536  0.82980738  0.99442726    -0.83100
C437        C  0.20856957  0.78513845  0.98892242     0.97900
C438        C  0.27906652  0.85967687  0.00098659     1.03800
O439        O  0.19953985  0.81361696  0.97220321    -0.78800
C440        C  0.28985320  0.73577331  0.89785110     1.02100
Fe441      Fe  0.68247720  0.12756990  0.78012953     1.65800
Fe442      Fe  0.71310085  0.04111813  0.78808469     1.73200
Fe443      Fe  0.65089479  0.06315741  0.72394955     1.54400
O444        O  0.60976202  0.09904689  0.73420690    -0.82500
O445        O  0.73158347  0.01854862  0.74080181    -0.80800
O446        O  0.62802979  0.13604590  0.77638773    -0.85000
O447        O  0.69035874  0.14534733  0.72821145    -0.79900
O448        O  0.62593736  0.02448287  0.75529334    -0.81600
O449        O  0.75887093  0.07316235  0.78908301    -0.84400
C450        C  0.68770171  0.13200483  0.69699205     0.96400
C451        C  0.60440834  0.12562883  0.75446023     1.03800
O452        O  0.68223154  0.07730918  0.76415662    -1.13400
O453        O  0.69975014  0.05888677  0.83899154    -0.75800
O454        O  0.67564156  0.11357754  0.83303993    -0.79300
O455        O  0.67460350  0.10090934  0.69081645    -0.80000
C456        C  0.68632744  0.08729963  0.85227323     0.95300
O457        O  0.73671992  0.12882833  0.78767714    -0.77900
O458        O  0.67075793  0.00496940  0.79039981    -0.83100
C459        C  0.71586464  0.01170263  0.71149484     0.97900
C460        C  0.63881051  0.00255807  0.77833705     1.03800
O461        O  0.68553340  0.02508604  0.70387015    -0.78800
C462        C  0.76248825  0.10704442  0.79143685     1.02100
Fe463      Fe  0.37011706  0.22112594  0.17931208     1.65800
Fe464      Fe  0.45664827  0.20931267  0.20560886     1.73200
Fe465      Fe  0.43522899  0.27430253  0.14320603     1.54400
O466        O  0.40555401  0.25543778  0.09996556    -0.82500
O467        O  0.48422959  0.25593265  0.21873861    -0.80800
O468        O  0.35923792  0.22885265  0.12614789    -0.85000
O469        O  0.35547235  0.27319464  0.19034966    -0.79900
O470        O  0.47992285  0.24639811  0.12475892    -0.81600
O471        O  0.42814405  0.21527627  0.25265488    -0.84400
C472        C  0.36560759  0.30359329  0.17831034     0.96400
C473        C  0.37420512  0.24188698  0.09865284     1.03800
O474        O  0.42082849  0.23480186  0.17580723    -1.13400
O475        O  0.43319486  0.15908251  0.19724699    -0.75800
O476        O  0.38081526  0.16772472  0.16955549    -0.79300
O477        O  0.39296546  0.30745221  0.15837899    -0.80000
C478        C  0.40480080  0.14704082  0.18236673     0.95300
O479        O  0.37178346  0.21207866  0.23308778    -0.77900
O480        O  0.48966305  0.20075818  0.16234324    -0.83100
C481        C  0.48406559  0.28860257  0.20868298     0.97900
C482        C  0.49765140  0.21870921  0.13443138     1.03800
O483        O  0.46567363  0.29914728  0.18203668    -0.78800
C484        C  0.39463077  0.21299169  0.25807197     1.02100
Fe485      Fe  0.71621531  0.19300631  0.11527359     1.65800
Fe486      Fe  0.76589431  0.15764469  0.04881875     1.73200
Fe487      Fe  0.69958949  0.21805032  0.02977018     1.54400
O488        O  0.65069664  0.19860956  0.04829373    -0.82500
O489        O  0.78198389  0.19238641  0.00810366    -0.80800
O490        O  0.66132226  0.19513609  0.10683522    -0.85000
O491        O  0.71970444  0.24809035  0.11461542    -0.79900
O492        O  0.70039905  0.17712553  0.99241121    -0.81600
O493        O  0.80314275  0.18239013  0.08182927    -0.84400
C494        C  0.70332350  0.27011933  0.09450543     0.96400
C495        C  0.63990578  0.19528607  0.08034549     1.03800
O496        O  0.72717808  0.18960055  0.06463287    -1.13400
O497        O  0.75703634  0.11857451  0.08845860    -0.75800
O498        O  0.71165261  0.13818134  0.12123925    -0.79300
O499        O  0.69346355  0.26247753  0.06294138    -0.80000
C500        C  0.73507288  0.11464769  0.11420000     0.95300
O501        O  0.76966986  0.19173746  0.13028730    -0.77900
O502        O  0.73136092  0.13065652  0.01427134    -0.83100
C503        C  0.77422420  0.22414184  0.99769457     0.97900
C504        C  0.71002052  0.14430437  0.99122728     1.03800
O505        O  0.74600768  0.24034728  0.00799922    -0.78800
C506        C  0.79982010  0.19026411  0.11460113     1.02100
Fe507      Fe  0.30232203  0.87949656  0.21686262     1.65800
Fe508      Fe  0.33948028  0.94537971  0.26808930     1.73200
Fe509      Fe  0.27621501  0.96680316  0.20468301     1.54400
O510        O  0.29002990  0.94816837  0.15407398    -0.82500
O511        O  0.30505847  0.98339989  0.28867686    -0.80800
O512        O  0.30203249  0.88992364  0.16281439    -0.85000
O513        O  0.24725671  0.88004569  0.21845185    -0.79900
O514        O  0.31816579  0.00310850  0.20192215    -0.81600
O515        O  0.31824202  0.90866371  0.30416382    -0.84400
C516        C  0.22342161  0.90288390  0.21013080     0.96400
C517        C  0.29703344  0.91682129  0.14230853     1.03800
O518        O  0.30608821  0.93053713  0.22969772    -1.13400
O519        O  0.37880015  0.90852879  0.25531752    -0.75800
O520        O  0.35701050  0.87157824  0.21419851    -0.79300
O521        O  0.23026355  0.93564097  0.20343130    -0.80000
C522        C  0.38212750  0.88173687  0.23478259     0.95300
O523        O  0.30145373  0.86296895  0.26921084    -0.77900
O524        O  0.36378445  0.98366087  0.23541260    -0.83100
C525        C  0.27386646  0.99523793  0.28188225     0.97900
C526        C  0.35032091  0.00592038  0.21317545     1.03800
O527        O  0.25811361  0.98891773  0.25235847    -0.78800
C528        C  0.30636252  0.87687174  0.29970421     1.02100
C529        C  0.41367280  0.08684743  0.21071791    -0.10000
C530        C  0.39768084  0.10756461  0.18339517     0.06200
C531        C  0.37122402  0.09116076  0.16173737    -0.03800
C532        C  0.35850525  0.05673435  0.17036532    -0.01000
C533        C  0.37140477  0.03769919  0.20041109     0.05300
C534        C  0.40091895  0.05232923  0.21941509    -0.03200
Br535      Br  0.42327416  0.02882425  0.25952962    -0.02900
H536        H  0.43456542  0.09850384  0.22729779     0.09200
H537        H  0.33699200  0.04552820  0.15425944     0.07300
Br538      Br  0.35039987  0.11429586  0.12054784    -0.03400
C539        C  0.57839809  0.21962368  0.07104306    -0.10000
C540        C  0.60089808  0.19453268  0.08807311     0.06200
C541        C  0.58690903  0.17369181  0.11634048    -0.03800
C542        C  0.55221305  0.18021773  0.12888882    -0.08200
C543        C  0.53066736  0.20791437  0.11436818     0.05300
C544        C  0.54371907  0.22667404  0.08387674    -0.03200
Br545      Br  0.51727228  0.26362918  0.05916550    -0.02900
H546        H  0.58875195  0.23574500  0.04913344     0.09200
H547        H  0.54295050  0.16457796  0.15157870     0.07300
Br548      Br  0.61438536  0.13658964  0.13969097    -0.03400
C549        C  0.66191830  0.11778344  0.90575009    -0.10000
C550        C  0.68573957  0.09224458  0.89175571     0.06200
C551        C  0.71285801  0.07820050  0.91457275    -0.03800
C552        C  0.71860128  0.09353964  0.94832801    -0.08200
C553        C  0.69753467  0.12244014  0.96026896     0.05300
C554        C  0.66729504  0.13265869  0.93955332    -0.03200
Br555      Br  0.63255432  0.16754320  0.95492250    -0.02900
H556        H  0.64007610  0.12794149  0.88939380     0.09200
H557        H  0.74131670  0.08450015  0.96411787     0.07300
Br558      Br  0.74601182  0.04144050  0.90024118    -0.03400
C559        C  0.26852672  0.90907119  0.04508915    -0.10000
C560        C  0.29001484  0.88005873  0.03375025     0.06200
C561        C  0.31826152  0.86853048  0.05667101    -0.03800
C562        C  0.32178802  0.88329959  0.09082644    -0.08200
C563        C  0.29808271  0.90975476  0.10326605     0.05300
C564        C  0.27217142  0.92376872  0.07937210    -0.03200
Br565      Br  0.23778910  0.95951255  0.09321136    -0.02900
H566        H  0.24698698  0.91893072  0.02817092     0.09200
H567        H  0.34228432  0.87265512  0.10858541     0.07300
Br568      Br  0.35237266  0.83163505  0.04477717    -0.03400
C569        C  0.59206083  0.95677287  0.76514596    -0.10000
C570        C  0.61695768  0.97102443  0.78949238     0.06200
C571        C  0.62386714  0.95186318  0.82150197    -0.03800
C572        C  0.60970178  0.91719230  0.82623691    -0.08200
C573        C  0.58768451  0.90138348  0.80008654     0.05300
C574        C  0.57729021  0.92246424  0.77012162    -0.03200
Br575      Br  0.54644954  0.90537383  0.73249011    -0.02900
H576        H  0.58588600  0.97127666  0.74071122     0.09200
H577        H  0.61695757  0.90202626  0.84997673     0.07300
Br578      Br  0.65226497  0.97140701  0.85979213    -0.03400
C579        C  0.40617099  0.78540187  0.91172624    -0.10000
C580        C  0.38628774  0.81545414  0.90040678     0.06200
C581        C  0.40266867  0.84052372  0.87709444    -0.03800
C582        C  0.43667427  0.83326288  0.86290578    -0.08200
C583        C  0.45507200  0.80115270  0.87131518     0.05300
C584        C  0.43994423  0.77784918  0.89749762    -0.03200
Br585      Br  0.46116490  0.73328209  0.91346779    -0.02900
H586        H  0.39422439  0.76588872  0.92978422     0.09200
H587        H  0.44801577  0.85224398  0.84395636     0.07300
Br588      Br  0.37985444  0.88482795  0.86318431    -0.03400
C589        C  0.31477055  0.23705642  0.06846568    -0.10000
C590        C  0.35184638  0.24453838  0.06546547     0.06200
C591        C  0.36431493  0.25987792  0.03312880    -0.03800
C592        C  0.33951904  0.27136387  0.00712075    -0.08200
C593        C  0.30223406  0.26728788  0.01214539     0.05300
C594        C  0.29011018  0.24840240  0.04259243    -0.03200
Br595      Br  0.24009031  0.24137613  0.05346280    -0.02900
H596        H  0.30417196  0.22466616  0.09247658     0.09200
H597        H  0.34942526  0.28472409  0.98330350     0.07300
Br598      Br  0.41439284  0.26649494  0.02265569    -0.03400
C599        C  0.17524826  0.88621639  0.16885731    -0.10000
C600        C  0.18704172  0.88916780  0.20430643     0.06200
C601        C  0.16853206  0.87079907  0.23153519    -0.03800
C602        C  0.14122919  0.84657906  0.22264313    -0.08200
C603        C  0.13198794  0.84090568  0.18682483     0.05300
C604        C  0.14795328  0.86198919  0.15989895    -0.03200
Br605      Br  0.13748505  0.85442296  0.11028404    -0.02900
H606        H  0.18973671  0.89995704  0.14768351     0.09200
H607        H  0.12869689  0.83057538  0.24349118     0.07300
Br608      Br  0.18086420  0.87678604  0.28078752    -0.03400
C609        C  0.14605830  0.78231744  0.01267307    -0.10000
C610        C  0.18115605  0.76819321  0.01306374     0.06200
C611        C  0.18912667  0.74086634  0.03843414    -0.03800
C612        C  0.16372498  0.73155770  0.06459663    -0.08200
C613        C  0.12992955  0.74857832  0.06637973     0.05300
C614        C  0.12065386  0.77289502  0.03856422    -0.03200
Br615      Br  0.07463480  0.79605908  0.03423308    -0.02900
H616        H  0.13844361  0.80217045  0.99275094     0.09200
H617        H  0.17140576  0.71209812  0.08486911     0.07300
Br618      Br  0.23436266  0.71604267  0.04071572    -0.03400
C619        C  0.17132944  0.37537539  0.05168153    -0.10000
C620        C  0.20216007  0.38713883  0.03310750     0.06200
C621        C  0.22286055  0.41538167  0.04825364    -0.03800
C622        C  0.21446772  0.42822238  0.08242964    -0.08200
C623        C  0.18597217  0.41341481  0.10221681     0.05300
C624        C  0.16329718  0.38799990  0.08578886    -0.03200
Br625      Br  0.12138699  0.36897990  0.10908879    -0.02900
H626        H  0.15398938  0.35478951  0.04034900     0.09200
H627        H  0.23204912  0.44806926  0.09468705     0.07300
Br628      Br  0.26466769  0.43573046  0.02585512    -0.03400
C629        C  0.08130539  0.55315814  0.21701195    -0.10000
C630        C  0.11082227  0.54123183  0.19694355     0.06200
C631        C  0.12238599  0.56271771  0.16782016    -0.03800
C632        C  0.10780768  0.59703734  0.16247376    -0.08200
C633        C  0.08112017  0.61064920  0.18509809     0.05300
C634        C  0.06630679  0.58737783  0.21129221    -0.03200
Br635      Br  0.02851079  0.60165544  0.24300172    -0.02900
H636        H  0.07132449  0.53686911  0.23894061     0.09200
H637        H  0.11869699  0.61392582  0.14141444     0.07300
Br638      Br  0.15830304  0.54743495  0.13441745    -0.03400
C639        C  0.30625236  0.38632884  0.17193311    -0.10000
C640        C  0.29078687  0.38588342  0.20607721     0.06200
C641        C  0.30474729  0.36248735  0.23232515    -0.03800
C642        C  0.33106374  0.33746087  0.22323318    -0.08200
C643        C  0.34401881  0.33534339  0.18814402     0.05300
C644        C  0.33258416  0.36111492  0.16269101    -0.03200
Br645      Br  0.34758175  0.35972202  0.11371271    -0.02900
H646        H  0.29535014  0.40384788  0.15139077     0.09200
H647        H  0.34017536  0.31837838  0.24326422     0.07300
Br648      Br  0.28703773  0.36231314  0.28041294    -0.03400
C649        C  0.89708345  0.67176468  0.11402683    -0.10000
C650        C  0.88413951  0.69275398  0.08540568     0.06200
C651        C  0.90854306  0.71652429  0.06824610    -0.03800
C652        C  0.94240396  0.72321270  0.08365327    -0.08200
C653        C  0.95328566  0.70562045  0.11527553     0.05300
C654        C  0.93129037  0.67741080  0.12855050    -0.03200
Br655      Br  0.94559834  0.64539005  0.16656672    -0.02900
H656        H  0.87984334  0.65175093  0.12638570     0.09200
H657        H  0.95948870  0.74360323  0.07172199     0.07300
Br658      Br  0.89739342  0.74207719  0.02488821    -0.03400
C659        C  0.68977136  0.76481851  0.95095929    -0.10000
C660        C  0.67657328  0.74090544  0.97700307     0.06200
C661        C  0.63939688  0.73253410  0.97657563    -0.03800
C662        C  0.61767207  0.74430435  0.94817500    -0.08200
C663        C  0.63186075  0.76497576  0.91992800     0.05300
C664        C  0.66795833  0.77713375  0.92290731    -0.03200
Br665      Br  0.69021975  0.80984873  0.88960368    -0.02900
H666        H  0.71779474  0.77274510  0.95132093     0.09200
H667        H  0.58989025  0.73559303  0.94741617     0.07300
Br668      Br  0.61617244  0.70520134  0.01369137    -0.03400
C669        C  0.03835460  0.29299092  0.90915173    -0.10000
C670        C  0.02724102  0.31199314  0.87850773     0.06200
C671        C  0.04869838  0.34108274  0.86646506    -0.03800
C672        C  0.08306053  0.34626743  0.88087345    -0.08200
C673        C  0.09632385  0.32374072  0.90817074     0.05300
C674        C  0.07232874  0.29893935  0.92437474    -0.03200
Br675      Br  0.08509488  0.26922782  0.96461179    -0.02900
H676        H  0.02173590  0.27153810  0.91984339     0.09200
H677        H  0.10024594  0.36678976  0.86928352     0.07300
Br678      Br  0.03302414  0.37445767  0.83023271    -0.03400
C679        C  0.82768959  0.16643519  0.83903589    -0.10000
C680        C  0.85496039  0.16969591  0.81376120     0.06200
C681        C  0.85513271  0.14704969  0.78375291    -0.03800
C682        C  0.82610064  0.12347309  0.77796724    -0.08200
C683        C  0.79702490  0.12295917  0.80176391     0.05300
C684        C  0.79865623  0.14377565  0.83310616    -0.03200
Br685      Br  0.76015806  0.14596552  0.86694429    -0.02900
H686        H  0.82741849  0.18402351  0.86208558     0.09200
H687        H  0.82487574  0.10787750  0.75362836     0.07300
Br688      Br  0.89221945  0.15043836  0.74854927    -0.03400
C689        C  0.81246025  0.27048214  0.91497671    -0.10000
C690        C  0.84963469  0.26457165  0.91952113     0.06200
C691        C  0.86155666  0.24908378  0.95202100    -0.03800
C692        C  0.83656506  0.23798984  0.97781741    -0.08200
C693        C  0.79939501  0.24192761  0.97228695     0.05300
C694        C  0.78745297  0.25910409  0.94073589    -0.03200
Br695      Br  0.73731818  0.26336100  0.92914887    -0.02900
H696        H  0.80245504  0.28169962  0.89010996     0.09200
H697        H  0.84625062  0.22516077  0.00205404     0.07300
Br698      Br  0.91151120  0.24180767  0.96285613    -0.03400
C699        C  0.76886445  0.58579036  0.90638974    -0.10000
C700        C  0.79923601  0.59822073  0.88792491     0.06200
C701        C  0.82262986  0.62257067  0.90505998    -0.03800
C702        C  0.81409685  0.63591598  0.93890806    -0.08200
C703        C  0.78198367  0.62599202  0.95631731     0.05300
C704        C  0.75979450  0.59955342  0.93996666    -0.03200
Br705      Br  0.71451402  0.58370642  0.95912282    -0.02900
H706        H  0.75036432  0.56744680  0.89333601     0.09200
H707        H  0.83205161  0.65544813  0.95093939     0.07300
Br708      Br  0.86612668  0.63920280  0.88289661    -0.03400
C709        C  0.86102656  0.45041544  0.81874504    -0.10000
C710        C  0.87490060  0.47103313  0.79026585     0.06200
C711        C  0.90487753  0.45761233  0.77133490    -0.03800
C712        C  0.91759740  0.42293025  0.77881253    -0.08200
C713        C  0.90064898  0.40097313  0.80431777     0.05300
C714        C  0.87330054  0.41560779  0.82560729    -0.03200
Br715      Br  0.85056484  0.38889145  0.86342966    -0.02900
H716        H  0.83895236  0.46048760  0.83452625     0.09200
H717        H  0.93883211  0.41199991  0.76246079     0.07300
Br718      Br  0.92746195  0.48257308  0.73228398    -0.03400
C719        C  0.64892257  0.66517414  0.76589576    -0.10000
C720        C  0.64144579  0.67487135  0.80120662     0.06200
C721        C  0.65770232  0.65579283  0.82961493    -0.03800
C722        C  0.68367782  0.62981923  0.82222334    -0.08200
C723        C  0.69349459  0.62257024  0.78691337     0.05300
C724        C  0.67452015  0.63879824  0.75865963    -0.03200
Br725      Br  0.68356959  0.62623586  0.71002686    -0.02900
H726        H  0.63575509  0.67902359  0.74393897     0.09200
H727        H  0.69857305  0.61772725  0.84412972     0.07300
Br728      Br  0.64948941  0.66767646  0.87879390    -0.03400
C729        C  0.12238580  0.66932470  0.29620609    -0.10000
C730        C  0.10858598  0.70435565  0.29345907     0.06200
C731        C  0.11657577  0.72948350  0.32035979    -0.03800
C732        C  0.13960267  0.71969496  0.34864495    -0.08200
C733        C  0.15576791  0.68549029  0.34961027     0.05300
C734        C  0.14604884  0.65989902  0.32370450    -0.03200
Br735      Br  0.16623723  0.61240711  0.32338268    -0.02900
H736        H  0.11663113  0.64985839  0.27544051     0.09200
H737        H  0.14674562  0.73954287  0.36854434     0.07300
Br738      Br  0.09916604  0.77798453  0.31762555    -0.03400
C739        C  0.25866946  0.57472498  0.32266384    -0.10000
C740        C  0.24747826  0.57106724  0.35843427     0.06200
C741        C  0.22700192  0.54042078  0.36805639    -0.03800
C742        C  0.21603928  0.51602217  0.34173213    -0.08200
C743        C  0.22478380  0.52151969  0.30560189     0.05300
C744        C  0.24705262  0.55078929  0.29630077    -0.03200
Br745      Br  0.25777894  0.56296939  0.24758521    -0.02900
H746        H  0.27386703  0.59821321  0.31432685     0.09200
H747        H  0.19937826  0.49328723  0.34936644     0.07300
Br748      Br  0.21214600  0.53070814  0.41621247    -0.03400
C749        C  0.31422814  0.81542167  0.38001130    -0.10000
C750        C  0.28105155  0.79731707  0.37769322     0.06200
C751        C  0.25472215  0.81004130  0.35380478    -0.03800
C752        C  0.26289406  0.83810151  0.33044222    -0.08200
C753        C  0.29688122  0.85432471  0.33059029     0.05300
C754        C  0.32240934  0.84373954  0.35640026    -0.03200
Br755      Br  0.37029330  0.86308274  0.35667553    -0.02900
H756        H  0.33493182  0.80545470  0.39786233     0.09200
H757        H  0.24336045  0.84581740  0.31049490     0.07300
Br758      Br  0.20793941  0.78850630  0.35036677    -0.03400
C759        C  0.43997034  0.72695210  0.40266158    -0.10000
C760        C  0.45449610  0.70341456  0.37729041     0.06200
C761        C  0.43563217  0.67123977  0.36949124    -0.03800
C762        C  0.40112840  0.66556677  0.38351412    -0.08200
C763        C  0.38524315  0.69093201  0.40624306     0.05300
C764        C  0.40576776  0.72104813  0.41707232    -0.03200
Br765      Br  0.38675855  0.75798969  0.44727259    -0.02900
H766        H  0.45403690  0.75164933  0.40932113     0.09200
H767        H  0.38605334  0.64188547  0.37552039     0.07300
Br768      Br  0.45554852  0.63411594  0.34003416    -0.03400
C769        C  0.60678913  0.68173289  0.18111995    -0.10000
C770        C  0.60821448  0.71592704  0.19707342     0.06200
C771        C  0.63176556  0.74218386  0.18300863    -0.03800
C772        C  0.65563978  0.73303878  0.15585710    -0.08200
C773        C  0.65635201  0.69798614  0.14209049     0.05300
C774        C  0.63087287  0.67252728  0.15396059    -0.03200
Br775      Br  0.63156350  0.62351860  0.13784606    -0.02900
H776        H  0.58931614  0.66109353  0.19200618     0.09200
H777        H  0.67487997  0.75288956  0.14660854     0.07300
Br778      Br  0.63357624  0.79042095  0.20112706    -0.03400
C779        C  0.41077429  0.82151906  0.23186383    -0.10000
C780        C  0.41456434  0.85869464  0.23841897     0.06200
C781        C  0.44655168  0.87105078  0.25486322    -0.03800
C782        C  0.47222509  0.84623297  0.26682164    -0.08200
C783        C  0.46707788  0.80904233  0.26242942     0.05300
C784        C  0.43642447  0.79675595  0.24393758    -0.03200
Br785      Br  0.42558857  0.74638859  0.23879133    -0.02900
H786        H  0.38632729  0.81117605  0.21980709     0.09200
H787        H  0.49606133  0.85602674  0.28047946     0.07300
Br788      Br  0.45681272  0.92121917  0.26238180    -0.03400
C789        C  0.51413793  0.16005902  0.72009092    -0.10000
C790        C  0.51665384  0.19686218  0.72844506     0.06200
C791        C  0.54569414  0.20872191  0.74964748    -0.03800
C792        C  0.57232458  0.18424631  0.76035751    -0.08200
C793        C  0.57122325  0.14777657  0.74988743     0.05300
C794        C  0.54082498  0.13558336  0.73057204    -0.03200
Br795      Br  0.53398413  0.08621199  0.71683277    -0.02900
H796        H  0.49170112  0.15040716  0.70426092     0.09200
H797        H  0.59534387  0.19455715  0.77486895     0.07300
Br798      Br  0.55318289  0.25866406  0.76083541    -0.03400
C799        C  0.35425835  0.32834177  0.84310318    -0.10000
C800        C  0.32256542  0.30780468  0.84619875     0.06200
C801        C  0.31781306  0.27785063  0.82369187    -0.03800
C802        C  0.34258917  0.27072736  0.79708915    -0.08200
C803        C  0.37235958  0.29319279  0.79128791     0.05300
C804        C  0.37909012  0.32142654  0.81569686    -0.03200
Br805      Br  0.41903947  0.35381215  0.81086150    -0.02900
H806        H  0.35845421  0.35133227  0.86031638     0.09200
H807        H  0.33693061  0.24877474  0.77903947     0.07300
Br808      Br  0.27706608  0.24627356  0.82597783    -0.03400
C809        C  0.37162726  0.41060764  0.66447839    -0.10000
C810        C  0.40095395  0.39760811  0.68441600     0.06200
C811        C  0.41819530  0.42128683  0.70858013    -0.03800
C812        C  0.40334489  0.45524060  0.71528137    -0.08200
C813        C  0.37165903  0.46661668  0.69809490     0.05300
C814        C  0.35717635  0.44474158  0.67072427    -0.03200
Br815      Br  0.31755547  0.45924337  0.64086617    -0.02900
H816        H  0.35878927  0.39344736  0.64486845     0.09200
H817        H  0.41554839  0.47188255  0.73568899     0.07300
Br818      Br  0.45986812  0.40826212  0.73613794    -0.03400
C819        C  0.32418850  0.61451660  0.58687207    -0.10000
C820        C  0.29825516  0.59393271  0.60487565     0.06200
C821        C  0.26687363  0.58330531  0.58634016    -0.03800
C822        C  0.26060136  0.59589942  0.55155000    -0.08200
C823        C  0.28513527  0.61911273  0.53458316     0.05300
C824        C  0.31821087  0.62661904  0.55188045    -0.03200
Br825      Br  0.35627112  0.65338351  0.52937129    -0.02900
H826        H  0.34876222  0.62219996  0.60052382     0.09200
H827        H  0.23515176  0.58965281  0.53881344     0.07300
Br828      Br  0.22931178  0.55576568  0.60868495    -0.03400
C829        C  0.26445299  0.46101770  0.86904185    -0.10000
C830        C  0.23772183  0.43642342  0.85829352     0.06200
C831        C  0.22053568  0.44227483  0.82482094    -0.03800
C832        C  0.23319462  0.46925563  0.80176472    -0.08200
C833        C  0.26276315  0.49078350  0.81104241     0.05300
C834        C  0.27706029  0.48784373  0.84592723    -0.03200
Br835      Br  0.31434744  0.51900073  0.86375856    -0.02900
H836        H  0.27731858  0.45817097  0.89488446     0.09200
H837        H  0.22121436  0.47183221  0.77547156     0.07300
Br838      Br  0.18135778  0.41354805  0.80694732    -0.03400
C839        C  0.28819249  0.64454038  0.85415774    -0.10000
C840        C  0.31889191  0.64816232  0.83261740     0.06200
C841        C  0.34327009  0.67634640  0.83929938    -0.03800
C842        C  0.33494539  0.70247139  0.86446365    -0.08200
C843        C  0.30234151  0.70130258  0.88317569     0.05300
C844        C  0.27976725  0.67103939  0.87947305    -0.03200
Br845      Br  0.23581209  0.66677136  0.90561877    -0.02900
H846        H  0.26951062  0.62259357  0.84952583     0.09200
H847        H  0.35278929  0.72543695  0.86744492     0.07300
Br848      Br  0.38730978  0.68162402  0.81325869    -0.03400
C849        C  0.42761546  0.67592100  0.72089174    -0.10000
C850        C  0.42764506  0.64082306  0.73523706     0.06200
C851        C  0.45639200  0.63075710  0.75794042    -0.03800
C852        C  0.48119572  0.65668578  0.76934058    -0.08200
C853        C  0.47865283  0.69295433  0.75838009     0.05300
C854        C  0.45265230  0.70187210  0.73199003    -0.03200
Br855      Br  0.44764043  0.74897980  0.71091450    -0.02900
H856        H  0.40639044  0.68417724  0.70277392     0.09200
H857        H  0.50184300  0.64845732  0.78811151     0.07300
Br858      Br  0.46317417  0.58242165  0.77539792    -0.03400
C859        C  0.58388289  0.55492104  0.26690207    -0.10000
C860        C  0.61158247  0.54105851  0.28848763     0.06200
C861        C  0.62319238  0.56124011  0.31836102    -0.03800
C862        C  0.61004890  0.59603864  0.32355830    -0.08200
C863        C  0.58460976  0.61094946  0.30017565     0.05300
C864        C  0.57039060  0.58955196  0.27244083    -0.03200
Br865      Br  0.53614203  0.60759455  0.23829918    -0.02900
H866        H  0.57440507  0.53986924  0.24399258     0.09200
H867        H  0.62054793  0.61199267  0.34542966     0.07300
Br868      Br  0.65691195  0.54323579  0.35309791    -0.03400
C869        C  0.65668194  0.30326745  0.12605252    -0.10000
C870        C  0.69105119  0.30367526  0.11082403     0.06200
C871        C  0.71451394  0.33250665  0.11794841    -0.03800
C872        C  0.70398331  0.35962533  0.14161325    -0.08200
C873        C  0.67076886  0.35743815  0.15919562     0.05300
C874        C  0.64656801  0.32962710  0.15043071    -0.03200
Br875      Br  0.60028697  0.32536070  0.17260542    -0.02900
H876        H  0.63858696  0.28087780  0.12095302     0.09200
H877        H  0.72278450  0.38093837  0.14829141     0.07300
Br878      Br  0.76179712  0.33424579  0.09790443    -0.03400
C879        C  0.55716909  0.33217457  0.26631761    -0.10000
C880        C  0.55746860  0.36739496  0.25230407     0.06200
C881        C  0.52933514  0.37775283  0.22902375    -0.03800
C882        C  0.50473318  0.35202247  0.21687865    -0.08200
C883        C  0.50692894  0.31565723  0.22761577     0.05300
C884        C  0.53235700  0.30638691  0.25441940    -0.03200
Br885      Br  0.53694279  0.25899108  0.27493374    -0.02900
H886        H  0.57802253  0.32371081  0.28476919     0.09200
H887        H  0.48451649  0.36050179  0.19775405     0.07300
Br888      Br  0.52324726  0.42627396  0.21178294    -0.03400
C889        C  0.71106054  0.51899605  0.14576526    -0.10000
C890        C  0.72358821  0.51993697  0.18121454     0.06200
C891        C  0.75004864  0.54560619  0.19034833    -0.03800
C892        C  0.76074535  0.57152793  0.16519352    -0.08200
C893        C  0.74535766  0.57301382  0.13072660     0.05300
C894        C  0.72177991  0.54481672  0.12054109    -0.03200
Br895      Br  0.70182027  0.54003714  0.07337012    -0.02900
H896        H  0.69167748  0.49868665  0.13786335     0.09200
H897        H  0.77930823  0.59228812  0.17378095     0.07300
Br898      Br  0.76953474  0.54990709  0.23769429    -0.03400
C899        C  0.71662485  0.41469120  0.44237387    -0.10000
C900        C  0.69586783  0.38625119  0.45642481     0.06200
C901        C  0.66561548  0.37441577  0.43653845    -0.03800
C902        C  0.65984385  0.38739824  0.40182895    -0.08200
C903        C  0.68284721  0.41310623  0.38641042     0.05300
C904        C  0.71030247  0.42828178  0.40786447    -0.03200
Br905      Br  0.74288955  0.46451664  0.39047727    -0.02900
H906        H  0.73949993  0.42484196  0.45727091     0.09200
H907        H  0.63784332  0.37633931  0.38625981     0.07300
Br908      Br  0.63095640  0.34052118  0.45473043    -0.03400
C909        C  0.58966040  0.33479172  0.61667345    -0.10000
C910        C  0.60121181  0.31562397  0.58664480     0.06200
C911        C  0.57602853  0.29345267  0.56872396    -0.03800
C912        C  0.54199710  0.28735528  0.58380140    -0.08200
C913        C  0.53210158  0.30339320  0.61631779     0.05300
C914        C  0.55573596  0.32924147  0.63143345    -0.03200
Br915      Br  0.54501238  0.35763872  0.67293055    -0.02900
H916        H  0.60790255  0.35319661  0.62997906     0.09200
H917        H  0.52403290  0.26839222  0.57095003     0.07300
Br918      Br  0.58679457  0.26849465  0.52530350    -0.03400
C919        C  0.67659119  0.15772360  0.63661268    -0.10000
C920        C  0.69917414  0.15456092  0.66659994     0.06200
C921        C  0.73028004  0.17615462  0.66872004    -0.03800
C922        C  0.73625683  0.20284541  0.64311674    -0.08200
C923        C  0.71134432  0.20909879  0.61550516     0.05300
C924        C  0.68228338  0.18495151  0.61115194    -0.03200
Br925      Br  0.64679843  0.19062715  0.57423910    -0.02900
H926        H  0.65283024  0.14093314  0.63448798     0.09200
H927        H  0.75916750  0.22063501  0.64637063     0.07300
Br928      Br  0.76476035  0.17161974  0.70678048    -0.03400
C929        C  0.83406144  0.28366215  0.64913372    -0.10000
C930        C  0.83050552  0.31963693  0.63809365     0.06200
C931        C  0.85164967  0.34632060  0.65462048    -0.03800
C932        C  0.87508137  0.33683123  0.68259668    -0.08200
C933        C  0.87671896  0.30112425  0.69535630     0.05300
C934        C  0.85656454  0.27433756  0.67770431    -0.03200
Br935      Br  0.85688940  0.22504400  0.69315338    -0.02900
H936        H  0.81734207  0.26302450  0.63704595     0.09200
H937        H  0.88951381  0.35796284  0.69656138     0.07300
Br938      Br  0.84546799  0.39643600  0.64325590    -0.03400
C939        C  0.72555065  0.43384132  0.66832898    -0.10000
C940        C  0.73722355  0.43638817  0.63262590     0.06200
C941        C  0.75788139  0.46676388  0.62252340    -0.03800
C942        C  0.76905128  0.49158289  0.64839280    -0.08200
C943        C  0.75978436  0.48735978  0.68457436     0.05300
C944        C  0.73663230  0.45874533  0.69417561    -0.03200
Br945      Br  0.72256850  0.44941489  0.74263763    -0.02900
H946        H  0.70973867  0.41084287  0.67697214     0.09200
H947        H  0.78595935  0.51398373  0.64023486     0.07300
Br948      Br  0.77206031  0.47603908  0.57406520    -0.03400
C949        C  0.82499256  0.33180636  0.26410996    -0.10000
C950        C  0.84271081  0.33522955  0.29703766     0.06200
C951        C  0.83297576  0.36314340  0.32030407    -0.03800
C952        C  0.80431834  0.38578230  0.31122393    -0.08200
C953        C  0.78460078  0.38022819  0.27964884     0.05300
C954        C  0.79610499  0.35396409  0.25526287    -0.03200
Br955      Br  0.77232405  0.34588387  0.21041093    -0.02900
H956        H  0.83225130  0.31030100  0.24614303     0.09200
H957        H  0.79534919  0.40550996  0.33042723     0.07300
Br958      Br  0.85372382  0.36759599  0.36703692    -0.03400
C959        C  0.79261910  0.24769348  0.45118342    -0.10000
C960        C  0.80503724  0.27298140  0.47613278     0.06200
C961        C  0.84181851  0.28252619  0.47573909    -0.03800
C962        C  0.86415997  0.27000186  0.44853079    -0.08200
C963        C  0.85094950  0.24758691  0.42123843     0.05300
C964        C  0.81500501  0.23485218  0.42401673    -0.03200
Br965      Br  0.79310850  0.20213643  0.39069702    -0.02900
H966        H  0.76472187  0.23930331  0.45154821     0.09200
H967        H  0.89177828  0.27926144  0.44795257     0.07300
Br968      Br  0.86352018  0.31244559  0.51161436    -0.03400
C969        C  0.03424691  0.30518929  0.23493429    -0.10000
C970        C  0.00824281  0.31744557  0.25906290     0.06200
C971        C  0.00785948  0.35453530  0.26764837    -0.03800
C972        C  0.03530916  0.37724558  0.25542618    -0.08200
C973        C  0.06367182  0.36413904  0.23449460     0.05300
C974        C  0.06176094  0.32792286  0.22261747    -0.03200
Br975      Br  0.09717919  0.30595846  0.19256346    -0.02900
H976        H  0.03462825  0.27707288  0.22729214     0.09200
H977        H  0.03537883  0.40508917  0.26400033     0.07300
Br978      Br  0.97114393  0.37631636  0.29631001    -0.03400
C979        C  0.86928662  0.17382929  0.18504460    -0.10000
C980        C  0.87797880  0.20920076  0.19468637     0.06200
C981        C  0.86592921  0.23812525  0.17341339    -0.03800
C982        C  0.84274328  0.23146810  0.14459837    -0.08200
C983        C  0.83181586  0.19613286  0.13674450     0.05300
C984        C  0.84628527  0.16713996  0.15634254    -0.03200
Br985      Br  0.83185312  0.11825814  0.14775273    -0.02900
H986        H  0.87800646  0.15149923  0.20164249     0.09200
H987        H  0.83146198  0.25395260  0.12982837     0.07300
Br988      Br  0.87880632  0.28692845  0.18428289    -0.03400
C989        C  0.31860952  0.13391952  0.72917588    -0.10000
C990        C  0.30005267  0.11635205  0.70160991     0.06200
C991        C  0.31195348  0.12071374  0.66618084    -0.03800
C992        C  0.33916862  0.14553657  0.65829967    -0.08200
C993        C  0.35539457  0.16550112  0.68553895     0.05300
C994        C  0.34667632  0.15791110  0.72133204    -0.03200
Br995      Br  0.37134457  0.18107565  0.75992826    -0.02900
H996        H  0.30980666  0.13074071  0.75654180     0.09200
H997        H  0.34591941  0.15103414  0.63068330     0.07300
Br998      Br  0.28877260  0.09687562  0.62718273    -0.03400
C999        C  0.15444147  0.16764389  0.84577197    -0.10000
C1000       C  0.18470764  0.14968791  0.83269989     0.06200
C1001       C  0.21899662  0.15858905  0.84601430    -0.03800
C1002       C  0.22275413  0.18681639  0.87042909    -0.08200
C1003       C  0.19286484  0.20734008  0.88036240     0.05300
C1004       C  0.15837404  0.19686294  0.86880550    -0.03200
Br1005     Br  0.11646095  0.22462119  0.87960924    -0.02900
H1006       H  0.12800741  0.16133514  0.83522857     0.09200
H1007       H  0.24934006  0.19454722  0.87944104     0.07300
Br1008     Br  0.26141962  0.13474882  0.82946447    -0.03400
C1009       C  0.04029914  0.21073821  0.73997715    -0.10000
C1010       C  0.01616295  0.20000950  0.76674555     0.06200
C1011       C  0.01791384  0.16403763  0.77943337    -0.03800
C1012       C  0.04459117  0.14071162  0.76701754    -0.08200
C1013       C  0.07061178  0.15214981  0.74222300     0.05300
C1014       C  0.06742357  0.18754011  0.72789854    -0.03200
Br1015     Br  0.09944747  0.20700361  0.69261678    -0.02900
H1016       H  0.03921058  0.23800153  0.72952499     0.09200
H1017       H  0.04598737  0.11387193  0.77845300     0.07300
Br1018     Br  0.98493012  0.14456667  0.81396229    -0.03400
C1019       C  0.24646965  0.95746444  0.79450475    -0.10000
C1020       C  0.22355170  0.98467554  0.80681898     0.06200
C1021       C  0.21515730  0.98518325  0.84369251    -0.03800
C1022       C  0.22637209  0.95694379  0.86616402    -0.08200
C1023       C  0.24660650  0.92794545  0.85310233     0.05300
C1024       C  0.25826051  0.92959607  0.81701447    -0.03200
Br1025     Br  0.28980038  0.89487154  0.79556985    -0.02900
H1026       H  0.25430171  0.95696473  0.76671277     0.09200
H1027       H  0.21793267  0.95709630  0.89377810     0.07300
Br1028     Br  0.18897428  0.02367073  0.86567754    -0.03400
C1029       C  0.35439769  0.17423060  0.34116332    -0.10000
C1030       C  0.32742949  0.20005319  0.34713860     0.06200
C1031       C  0.32976039  0.23364863  0.32935848    -0.03800
C1032       C  0.35580203  0.23919695  0.30324897    -0.08200
C1033       C  0.37986529  0.21182574  0.29428418     0.05300
C1034       C  0.38047529  0.17990088  0.31469251    -0.03200
Br1035     Br  0.41330476  0.14169452  0.30408805    -0.02900
H1036       H  0.35349257  0.14857010  0.35489152     0.09200
H1037       H  0.35529783  0.26387850  0.28775368     0.07300
Br1038     Br  0.29712512  0.27255785  0.33773586    -0.03400
C1039       C  0.23132511  0.04472866  0.29740945    -0.10000
C1040       C  0.25645464  0.01896577  0.30881718     0.06200
C1041       C  0.26661924  0.01868853  0.34531086    -0.03800
C1042       C  0.25595869  0.04677538  0.36780801    -0.08200
C1043       C  0.23432736  0.07515398  0.35515603     0.05300
C1044       C  0.21983474  0.07227027  0.32013547    -0.03200
Br1045     Br  0.18478158  0.10498887  0.30069880    -0.02900
H1046       H  0.22175463  0.04457635  0.27007263     0.09200
H1047       H  0.26620319  0.04720516  0.39489622     0.07300
Br1048     Br  0.29469803  0.98072189  0.36651468    -0.03400
C1049       C  0.36943965  0.23827807  0.53742087    -0.10000
C1050       C  0.35626221  0.25928679  0.56562123     0.06200
C1051       C  0.32022617  0.27157882  0.56347371    -0.03800
C1052       C  0.29780527  0.25982658  0.53578617    -0.08200
C1053       C  0.31005273  0.23600133  0.50947913     0.05300
C1054       C  0.34704695  0.22695251  0.50941853    -0.03200
Br1055     Br  0.36931512  0.19929323  0.47233740    -0.02900
H1056       H  0.39716413  0.22944946  0.53771922     0.09200
H1057       H  0.26989682  0.26802597  0.53608054     0.07300
Br1058     Br  0.29789018  0.30180643  0.59854085    -0.03400
C1059       C  0.08170466  0.22812795  0.41323290    -0.10000
C1060       C  0.10050468  0.19780673  0.40076709     0.06200
C1061       C  0.08216123  0.17348032  0.37824849    -0.03800
C1062       C  0.04747705  0.18155655  0.36605251    -0.08200
C1063       C  0.02996342  0.21365642  0.37569983     0.05300
C1064       C  0.04691735  0.23626005  0.40103134    -0.03200
Br1065     Br  0.02623562  0.28050203  0.41756467    -0.02900
H1066       H  0.09501370  0.24712687  0.43076178     0.09200
H1067       H  0.03466827  0.16310425  0.34760404     0.07300
Br1068     Br  0.10282558  0.12889867  0.36267887    -0.03400
C1069       C  0.20863228  0.08498945  0.58153764    -0.10000
C1070       C  0.18485061  0.10371877  0.60388235     0.06200
C1071       C  0.16431134  0.13182035  0.58866457    -0.03800
C1072       C  0.17115656  0.14349633  0.55374306    -0.08200
C1073       C  0.19832106  0.12781962  0.53280262     0.05300
C1074       C  0.21577315  0.09675320  0.54657932    -0.03200
Br1075     Br  0.25091686  0.06963940  0.52060311    -0.02900
H1076       H  0.22363072  0.06226142  0.59197487     0.09200
H1077       H  0.15595407  0.16622479  0.54360170     0.07300
Br1078     Br  0.12615332  0.15533541  0.61366302    -0.03400
C1079       C  0.15887603  0.30742441  0.36447076    -0.10000
C1080       C  0.19286825  0.30602565  0.38067893     0.06200
C1081       C  0.21719328  0.33468272  0.37535763    -0.03800
C1082       C  0.20884682  0.36183354  0.35030528    -0.08200
C1083       C  0.17615493  0.36077069  0.33132026     0.05300
C1084       C  0.15038594  0.33450787  0.34008558    -0.03200
Br1085     Br  0.10403544  0.33300634  0.31754798    -0.02900
H1086       H  0.13970956  0.28582642  0.36889438     0.09200
H1087       H  0.22858415  0.38241390  0.34419105     0.07300
Br1088     Br  0.26250046  0.33640958  0.39980108    -0.03400
C1089       C  0.16048571  0.67938958  0.72605692    -0.10000
C1090       C  0.14135473  0.67485020  0.69400925     0.06200
C1091       C  0.14898573  0.64491777  0.67237279    -0.03800
C1092       C  0.17783826  0.62226810  0.68128820    -0.08200
C1093       C  0.19924872  0.62910999  0.71155995     0.05300
C1094       C  0.18898179  0.65666229  0.73509587    -0.03200
Br1095     Br  0.21360873  0.66492909  0.77945569    -0.02900
H1096       H  0.15430974  0.70179696  0.74334278     0.09200
H1097       H  0.18521429  0.60105195  0.66304335     0.07300
Br1098     Br  0.12404490  0.63655278  0.62825447    -0.03400
C1099       C  0.16668459  0.77324411  0.56593241    -0.10000
C1100       C  0.13108854  0.76016417  0.56677850     0.06200
C1101       C  0.11950089  0.73782508  0.53844777    -0.03800
C1102       C  0.14425947  0.72578591  0.51302939    -0.08200
C1103       C  0.18070481  0.73606126  0.51431606     0.05300
C1104       C  0.19132554  0.76163303  0.54018158    -0.03200
Br1105     Br  0.23970493  0.77933941  0.54455085    -0.02900
H1106       H  0.17632797  0.79083694  0.58687300     0.09200
H1107       H  0.13502709  0.70742557  0.49254932     0.07300
Br1108     Br  0.07046385  0.72242509  0.53260734    -0.03400
C1109       C  0.08278784  0.95955506  0.71359286    -0.10000
C1110       C  0.11223275  0.97198428  0.69347001     0.06200
C1111       C  0.12292225  0.95142927  0.66356207    -0.03800
C1112       C  0.10875033  0.91682772  0.65850390    -0.08200
C1113       C  0.08254367  0.90258909  0.68152617     0.05300
C1114       C  0.06739288  0.92562795  0.70738966    -0.03200
Br1115     Br  0.02756854  0.91201399  0.73711588    -0.02900
H1116       H  0.07280813  0.97535989  0.73562919     0.09200
H1117       H  0.11939033  0.90035169  0.63725499     0.07300
Br1118     Br  0.15676162  0.96830623  0.62852496    -0.03400
C1119       C  0.97845217  0.66014281  0.72729686    -0.10000
C1120       C  0.97402999  0.69739120  0.73244195     0.06200
C1121       C  0.94344887  0.70948311  0.75106491    -0.03800
C1122       C  0.91706599  0.68474872  0.76171413    -0.08200
C1123       C  0.91998245  0.64786317  0.75373807     0.05300
C1124       C  0.95195155  0.63543874  0.73783394    -0.03200
Br1125     Br  0.96095779  0.58527203  0.72941281    -0.02900
H1126       H  0.00214953  0.65024787  0.71381620     0.09200
H1127       H  0.89275131  0.69498751  0.77377820     0.07300
Br1128     Br  0.93330749  0.75962654  0.75856959    -0.03400
C1129       C  0.13148696  0.76761672  0.80538909    -0.10000
C1130       C  0.11118325  0.79729609  0.79391793     0.06200
C1131       C  0.11260400  0.82948046  0.81360550    -0.03800
C1132       C  0.13683233  0.83269236  0.84202306    -0.08200
C1133       C  0.16009739  0.80428055  0.85083215     0.05300
C1134       C  0.15561847  0.77078281  0.83382877    -0.03200
Br1135     Br  0.18251743  0.72896426  0.84763257    -0.02900
H1136       H  0.13007877  0.74251367  0.79085918     0.09200
H1137       H  0.13976370  0.85855471  0.85500797     0.07300
Br1138     Br  0.08633739  0.87150952  0.79976291    -0.03400
C1139       C  0.89643983  0.05502913  0.26825577    -0.10000
C1140       C  0.87112165  0.04059908  0.29227357     0.06200
C1141       C  0.86499113  0.05916941  0.32465049    -0.03800
C1142       C  0.88042296  0.09322260  0.33001400    -0.08200
C1143       C  0.90284814  0.10905535  0.30423717     0.05300
C1144       C  0.91220704  0.08881167  0.27390814    -0.03200
Br1145     Br  0.94205384  0.10780525  0.23649105    -0.02900
H1146       H  0.90216249  0.04126487  0.24349621     0.09200
H1147       H  0.87343824  0.10824156  0.35372817     0.07300
Br1148     Br  0.83554360  0.04037029  0.36253741    -0.03400
C1149       C  0.75041774  0.81323161  0.13695253    -0.10000
C1150       C  0.77787587  0.80404508  0.11311236     0.06200
C1151       C  0.80966615  0.82468121  0.11262543    -0.03800
C1152       C  0.81482977  0.85186244  0.13797235    -0.08200
C1153       C  0.78883934  0.85844176  0.16428722     0.05300
C1154       C  0.75551552  0.84030444  0.16227614    -0.03200
Br1155     Br  0.71651503  0.85051287  0.19412485    -0.02900
H1156       H  0.72573154  0.79765224  0.13739303     0.09200
H1157       H  0.84051551  0.86570951  0.13897286     0.07300
Br1158     Br  0.84885938  0.81313911  0.08166428    -0.03400
C1159       C  0.94368415  0.87659995  0.22649195    -0.10000
C1160       C  0.91705488  0.86437678  0.25023521     0.06200
C1161       C  0.92153154  0.82982609  0.26606557    -0.03800
C1162       C  0.94881621  0.80683751  0.25416311    -0.08200
C1163       C  0.97282791  0.81768827  0.22732781     0.05300
C1164       C  0.97158613  0.85397513  0.21544906    -0.03200
Br1165     Br  0.00740096  0.87481442  0.18468972    -0.02900
H1166       H  0.94206276  0.90344774  0.21511292     0.09200
H1167       H  0.95023831  0.77974286  0.26498478     0.07300
Br1168     Br  0.89167895  0.81184749  0.30401871    -0.03400
C1169       C  0.74372037  0.05814678  0.19884906    -0.10000
C1170       C  0.75690261  0.02548873  0.18556264     0.06200
C1171       C  0.75888871  0.02102380  0.14812248    -0.03800
C1172       C  0.75010665  0.04970723  0.12509416    -0.08200
C1173       C  0.73873657  0.08303899  0.13853910     0.05300
C1174       C  0.73506764  0.08681574  0.17597672    -0.03200
Br1175     Br  0.72338393  0.13178125  0.19842933    -0.02900
H1176       H  0.74251027  0.06239229  0.22738867     0.09200
H1177       H  0.75290883  0.04617805  0.09658001     0.07300
Br1178     Br  0.77302655  0.97631448  0.12677154    -0.03400
C1179       C  0.65931220  0.89096393  0.28067804    -0.10000
C1180       C  0.68916621  0.89060316  0.30381884     0.06200
C1181       C  0.68773032  0.86905341  0.33497565    -0.03800
C1182       C  0.65922569  0.84538627  0.34033300    -0.08200
C1183       C  0.63137001  0.84279172  0.31540418     0.05300
C1184       C  0.63017805  0.86729754  0.28652798    -0.03200
Br1185     Br  0.59116449  0.86687776  0.25300920    -0.02900
H1186       H  0.65983063  0.90750885  0.25677166     0.09200
H1187       H  0.65994969  0.82717756  0.36308276     0.07300
Br1188     Br  0.72529004  0.86836684  0.37010100    -0.03400
C1189       C  0.90035094  0.83413977  0.60898026    -0.10000
C1190       C  0.88371339  0.80704658  0.58877072     0.06200
C1191       C  0.90364500  0.77596814  0.58016279    -0.03800
C1192       C  0.93855990  0.77151801  0.59360847    -0.08200
C1193       C  0.95437532  0.79744061  0.61598657     0.05300
C1194       C  0.93541375  0.82987314  0.62219807    -0.03200
Br1195     Br  0.95558390  0.86943161  0.64853703    -0.02900
H1196       H  0.88557237  0.85838041  0.61540246     0.09200
H1197       H  0.95236427  0.74638897  0.58853490     0.07300
Br1198     Br  0.88307401  0.73639499  0.55428593    -0.03400
C1199       C  0.82598676  0.88268343  0.40191904    -0.10000
C1200       C  0.80559893  0.91201720  0.38943051     0.06200
C1201       C  0.78254325  0.92956192  0.41391736    -0.03800
C1202       C  0.77691472  0.91462208  0.44785638    -0.08200
C1203       C  0.79369092  0.88240304  0.45842465     0.05300
C1204       C  0.82036814  0.86779598  0.43579814    -0.03200
Br1205     Br  0.84943275  0.82665495  0.44797757    -0.02900
H1206       H  0.84494219  0.86958963  0.38437867     0.09200
H1207       H  0.75719577  0.92702904  0.46505157     0.07300
Br1208     Br  0.75443328  0.97153045  0.40254462    -0.03400
C1209       C  0.63775479  0.78655896  0.63921014    -0.10000
C1210       C  0.65232005  0.82125841  0.63476814     0.06200
C1211       C  0.63988369  0.84948288  0.65627180    -0.03800
C1212       C  0.61587569  0.84216151  0.68393158    -0.08200
C1213       C  0.60376476  0.80693944  0.69056099     0.05300
C1214       C  0.61362556  0.77920368  0.66709300    -0.03200
Br1215     Br  0.59825376  0.73043608  0.67493897    -0.02900
H1216       H  0.64706381  0.76469575  0.62259656     0.09200
H1217       H  0.60902152  0.86359282  0.70222595     0.07300
Br1218     Br  0.65798069  0.89772213  0.65129606    -0.03400
C1219       C  0.76314919  0.93103447  0.66947892    -0.10000
C1220       C  0.75088691  0.93310258  0.63382784     0.06200
C1221       C  0.73150332  0.96419322  0.62333962    -0.03800
C1222       C  0.72241710  0.99030299  0.64871950    -0.08200
C1223       C  0.73218613  0.98667215  0.68493360     0.05300
C1224       C  0.75394987  0.95710174  0.69487519    -0.03200
Br1225     Br  0.76874688  0.94806560  0.74327387    -0.02900
H1226       H  0.77805025  0.90765358  0.67850906     0.09200
H1227       H  0.70645890  0.01317232  0.64017256     0.07300
Br1228     Br  0.71572821  0.97277832  0.57515857    -0.03400
C1229       C  0.80496174  0.68229387  0.60587216    -0.10000
C1230       C  0.77459210  0.70355771  0.61300344     0.06200
C1231       C  0.75222753  0.69425977  0.64183303    -0.03800
C1232       C  0.76319558  0.66787871  0.66587117    -0.08200
C1233       C  0.79552242  0.64938632  0.66109496     0.05300
C1234       C  0.81561008  0.65516392  0.62982474    -0.03200
Br1235     Br  0.86018477  0.63081198  0.62147866    -0.02900
H1236       H  0.82230901  0.68900729  0.58365862     0.09200
H1237       H  0.74748419  0.66332608  0.68970213     0.07300
Br1238     Br  0.70775055  0.71846485  0.65122794    -0.03400
C1239       C  0.69156230  0.74794664  0.44837825    -0.10000
C1240       C  0.67985995  0.77244860  0.47428731     0.06200
C1241       C  0.64311129  0.78193970  0.47478391    -0.03800
C1242       C  0.61975720  0.76915201  0.44833181    -0.08200
C1243       C  0.63195503  0.74704423  0.42052095     0.05300
C1244       C  0.66830110  0.73542198  0.42153134    -0.03200
Br1245     Br  0.68962074  0.70542340  0.38570264    -0.02900
H1246       H  0.71956128  0.74006731  0.44770927     0.09200
H1247       H  0.59204009  0.77797446  0.44873907     0.07300
Br1248     Br  0.62273912  0.81238874  0.51071517    -0.03400
loop_ 
_geom_bond_atom_site_label_1 
_geom_bond_atom_site_label_2 
_geom_bond_distance 
_geom_bond_site_symmetry_2 
_ccdc_geom_bond_type 
Fe1          O17   2.078       .  S
Fe1           O7   2.040       .  S
Fe1          O14   2.059       .  S
Fe1           O6   2.074       .  S
Fe1          O12   1.955       .  S
Fe2           O5   2.074       .  S
Fe2           O9   2.071       .  S
Fe2          O13   2.089       .  S
Fe2          O18   2.077       .  S
Fe2          O12   1.969       .  S
Fe3          O21   2.072       .  S
Fe3           O8   2.066       .  S
Fe3          O15   2.067       .  S
Fe3           O4   2.075       .  S
Fe3          O12   1.975       .  S
O4           C11   1.272       .  A
O5           C19   1.268       .  A
O6           C11   1.272       .  A
O7           C10   1.265       .  A
O8           C20   1.270       .  A
O9           C22   1.271       .  A
C10          O15   1.267       .  A
C10        C1230   1.469       .  S
C11        C1190   1.483       .  S
O13          C16   1.270       .  A
O14          C16   1.266       .  A
C16        C1220   1.500       .  S
O17          C22   1.274       .  A
O18          C20   1.276       .  A
C19          O21   1.269       .  A
C19        C1240   1.490       .  S
C20        C1203   1.491       .  S
C22        C1210   1.471       .  S
Fe23         O39   2.047       .  S
Fe23         O29   2.061       .  S
Fe23         O36   2.062       .  S
Fe23         O28   2.055       .  S
Fe23         O34   1.958       .  S
Fe24         O27   2.080       .  S
Fe24         O31   2.089       .  S
Fe24         O35   2.081       .  S
Fe24         O40   2.070   1_565  S
Fe24         O34   1.975       .  S
Fe25         O43   2.061       .  S
Fe25         O30   2.074       .  S
Fe25         O37   2.085       .  S
Fe25         O26   2.075       .  S
Fe25         O34   1.971       .  S
O26          C33   1.267       .  A
O27          C41   1.272       .  A
O28          C33   1.261       .  A
O29          C32   1.275       .  A
O30          C42   1.274   1_565  A
O31          C44   1.269       .  A
C32          O37   1.277       .  A
C32        C1153   1.480       .  S
C33        C1160   1.497       .  S
O35          C38   1.273       .  A
O36          C38   1.275       .  A
C38        C1200   1.493       .  S
O39          C44   1.262       .  A
O40          C42   1.271       .  A
C41          O43   1.267       .  A
C41        C1170   1.489   1_565  S
C42        C1140   1.493       .  S
C44        C1180   1.479       .  S
Fe45         O61   2.047       .  S
Fe45         O51   2.060       .  S
Fe45         O58   2.066       .  S
Fe45         O50   2.066       .  S
Fe45         O56   1.965       .  S
Fe46         O49   2.067       .  S
Fe46         O53   2.077       .  S
Fe46         O57   2.071       .  S
Fe46         O62   2.073   1_455  S
Fe46         O56   1.979       .  S
Fe47         O65   2.061       .  S
Fe47         O52   2.084       .  S
Fe47         O59   2.078       .  S
Fe47         O48   2.075       .  S
Fe47         O56   1.976       .  S
O48          C55   1.268       .  A
O49          C63   1.266   1_455  A
O50          C55   1.268       .  A
O51          C54   1.270       .  A
O52          C64   1.278   1_455  A
O53          C66   1.268       .  A
C54          O59   1.273       .  A
C54        C1090   1.475       .  S
C55        C1100   1.497       .  S
O57          C60   1.269       .  A
O58          C60   1.271       .  A
C60        C1113   1.488       .  S
O61          C66   1.265       .  A
O62          C64   1.273       .  A
C63          O65   1.266   1_655  A
C63        C1120   1.484       .  S
C64        C1193   1.491       .  S
C66        C1130   1.469       .  S
Fe67         O83   2.045       .  S
Fe67         O73   2.056       .  S
Fe67         O80   2.065       .  S
Fe67         O72   2.054       .  S
Fe67         O78   1.956       .  S
Fe68         O71   2.074       .  S
Fe68         O75   2.077       .  S
Fe68         O79   2.092       .  S
Fe68         O84   2.066       .  S
Fe68         O78   1.971       .  S
Fe69         O87   2.063       .  S
Fe69         O74   2.085       .  S
Fe69         O81   2.089       .  S
Fe69         O70   2.083       .  S
Fe69         O78   1.974       .  S
O70          C77   1.270       .  A
O71          C85   1.271       .  A
O72          C77   1.262       .  A
O73          C76   1.272       .  A
O74          C86   1.274       .  A
O75          C88   1.265       .  A
C76          O81   1.276       .  A
C76        C1030   1.482       .  S
C77        C1043   1.498       .  S
O79          C82   1.277       .  A
O80          C82   1.274       .  A
C82        C1060   1.492       .  S
O83          C88   1.263       .  A
O84          C86   1.273       .  A
C85          O87   1.266       .  A
C85        C1053   1.495       .  S
C86        C1073   1.500       .  S
C88        C1080   1.470       .  S
Fe89        O105   2.058       .  S
Fe89         O95   2.046       .  S
Fe89        O102   2.066       .  S
Fe89         O94   2.075       .  S
Fe89        O100   1.965       .  S
Fe90         O93   2.069       .  S
Fe90         O97   2.077       .  S
Fe90        O101   2.075       .  S
Fe90        O106   2.078       .  S
Fe90        O100   1.979       .  S
Fe91        O109   2.080       .  S
Fe91         O96   2.062       .  S
Fe91        O103   2.074       .  S
Fe91         O92   2.085       .  S
Fe91        O100   1.982       .  S
O92          C99   1.277       .  A
O93         C107   1.269       .  A
O94          C99   1.276       .  A
O95          C98   1.261       .  A
O96         C108   1.267       .  A
O97         C110   1.273       .  A
C98         O103   1.265       .  A
C98         C990   1.470       .  S
C99        C1070   1.495       .  S
O101        C104   1.270       .  A
O102        C104   1.264       .  A
C104       C1013   1.500       .  S
O105        C110   1.271       .  A
O106        C108   1.272       .  A
C107        O109   1.273       .  A
C107       C1020   1.496   1_545  S
C108       C1110   1.494   1_545  S
C110       C1000   1.467       .  S
Fe111       O127   2.046       .  S
Fe111       O117   2.052       .  S
Fe111       O124   2.062       .  S
Fe111       O116   2.055       .  S
Fe111       O122   1.965       .  S
Fe112       O115   2.061       .  S
Fe112       O119   2.073       .  S
Fe112       O123   2.073       .  S
Fe112       O128   2.083       .  S
Fe112       O122   1.977       .  S
Fe113       O131   2.074       .  S
Fe113       O118   2.070       .  S
Fe113       O125   2.069       .  S
Fe113       O114   2.080       .  S
Fe113       O122   1.976       .  S
O114        C121   1.272       .  A
O115        C129   1.265       .  A
O116        C121   1.268       .  A
O117        C120   1.265       .  A
O118        C130   1.274       .  A
O119        C132   1.271       .  A
C120        O125   1.266       .  A
C120        C980   1.464       .  S
C121       C1143   1.479       .  S
O123        C126   1.270       .  A
O124        C126   1.265       .  A
C126        C963   1.496       .  S
O127        C132   1.267       .  A
O128        C130   1.275       .  A
C129        O131   1.269       .  A
C129        C970   1.490   1_655  S
C130       C1063   1.494   1_655  S
C132        C950   1.466       .  S
Fe133       O149   2.034       .  S
Fe133       O139   2.066       .  S
Fe133       O146   2.057       .  S
Fe133       O138   2.053       .  S
Fe133       O144   1.952       .  S
Fe134       O137   2.071       .  S
Fe134       O141   2.085       .  S
Fe134       O145   2.077       .  S
Fe134       O150   2.078       .  S
Fe134       O144   1.972       .  S
Fe135       O153   2.071       .  S
Fe135       O140   2.086       .  S
Fe135       O147   2.080       .  S
Fe135       O136   2.085       .  S
Fe135       O144   1.966       .  S
O136        C143   1.270       .  A
O137        C151   1.269       .  A
O138        C143   1.265       .  A
O139        C142   1.270       .  A
O140        C152   1.278       .  A
O141        C154   1.271       .  A
C142        O147   1.273       .  A
C142        C930   1.473       .  S
C143        C940   1.492       .  S
O145        C148   1.270       .  A
O146        C148   1.270       .  A
C148        C910   1.489       .  S
O149        C154   1.265       .  A
O150        C152   1.274       .  A
C151        O153   1.268       .  A
C151        C960   1.488       .  S
C152        C900   1.495       .  S
C154        C923   1.476       .  S
Fe155       O171   2.082       .  S
Fe155       O161   2.050       .  S
Fe155       O168   2.061       .  S
Fe155       O160   2.076       .  S
Fe155       O166   1.948       .  S
Fe156       O159   2.063       .  S
Fe156       O163   2.063       .  S
Fe156       O167   2.069       .  S
Fe156       O172   2.065       .  S
Fe156       O166   1.955       .  S
Fe157       O175   2.072       .  S
Fe157       O162   2.072       .  S
Fe157       O169   2.069       .  S
Fe157       O158   2.072       .  S
Fe157       O166   1.957       .  S
O158        C165   1.270       .  A
O159        C173   1.266       .  A
O160        C165   1.273       .  A
O161        C164   1.268       .  A
O162        C174   1.274       .  A
O163        C176   1.270       .  A
C164        O169   1.270       .  A
C164        C953   1.469       .  S
C165        C903   1.488       .  S
O167        C170   1.267       .  A
O168        C170   1.267       .  A
C170        C880   1.487       .  S
O171        C176   1.274       .  A
O172        C174   1.275       .  A
C173        O175   1.267       .  A
C173        C890   1.486       .  S
C174        C860   1.481       .  S
C176        C873   1.468       .  S
Fe177       O193   2.055       .  S
Fe177       O183   2.089       .  S
Fe177       O190   2.081       .  S
Fe177       O182   2.064       .  S
Fe177       O188   1.943       .  S
Fe178       O181   2.069       .  S
Fe178       O185   2.078       .  S
Fe178       O189   2.064       .  S
Fe178       O194   2.085       .  S
Fe178       O188   1.954       .  S
Fe179       O197   2.063       .  S
Fe179       O184   2.065       .  S
Fe179       O191   2.063       .  S
Fe179       O180   2.069       .  S
Fe179       O188   1.954       .  S
O180        C187   1.266       .  A
O181        C195   1.268       .  A
O182        C187   1.267       .  A
O183        C186   1.277       .  A
O184        C196   1.274       .  A
O185        C198   1.270       .  A
C186        O191   1.271       .  A
C186        C840   1.471       .  S
C187        C850   1.490       .  S
O189        C192   1.271       .  A
O190        C192   1.275       .  A
C192        C820   1.479       .  S
O193        C198   1.268       .  A
O194        C196   1.275       .  A
C195        O197   1.266       .  A
C195        C833   1.482       .  S
C196        C813   1.489       .  S
C198       C1093   1.478       .  S
Fe199       O215   2.080       .  S
Fe199       O205   2.034       .  S
Fe199       O212   2.052       .  S
Fe199       O204   2.068       .  S
Fe199       O210   1.946       .  S
Fe200       O203   2.069       .  S
Fe200       O207   2.065       .  S
Fe200       O211   2.085       .  S
Fe200       O216   2.075       .  S
Fe200       O210   1.968       .  S
Fe201       O219   2.072       .  S
Fe201       O206   2.072       .  S
Fe201       O213   2.089       .  S
Fe201       O202   2.071       .  S
Fe201       O210   1.964       .  S
O202        C209   1.271       .  A
O203        C217   1.269       .  A
O204        C209   1.272       .  A
O205        C208   1.266       .  A
O206        C218   1.272       .  A
O207        C220   1.270       .  A
C208        O213   1.270       .  A
C208        C803   1.484       .  S
C209        C810   1.487       .  S
O211        C214   1.270       .  A
O212        C214   1.261       .  A
C214       C1050   1.494       .  S
O215        C220   1.275       .  A
O216        C218   1.276       .  A
C217        O219   1.269       .  A
C217        C790   1.484       .  S
C218        C913   1.493       .  S
C220        C993   1.468       .  S
Fe221       O237   2.046       .  S
Fe221       O227   2.072       .  S
Fe221       O234   2.074       .  S
Fe221       O226   2.058       .  S
Fe221       O232   1.946       .  S
Fe222       O225   2.061       .  S
Fe222       O229   2.092       .  S
Fe222       O233   2.053       .  S
Fe222       O238   2.087       .  S
Fe222       O232   1.961       .  S
Fe223       O241   2.071       .  S
Fe223       O228   2.072       .  S
Fe223       O235   2.071       .  S
Fe223       O224   2.087       .  S
Fe223       O232   1.957       .  S
O224        C231   1.273       .  A
O225        C239   1.268       .  A
O226        C231   1.265       .  A
O227        C230   1.273       .  A
O228        C240   1.275       .  A
O229        C242   1.273       .  A
C230        O235   1.269       .  A
C230       C1183   1.471       .  S
C231       C1243   1.495       .  S
O233        C236   1.267       .  A
O234        C236   1.272       .  A
C236        C863   1.472       .  S
O237        C242   1.267       .  A
O238        C240   1.276       .  A
C239        O241   1.270       .  A
C239        C783   1.476       .  S
C240        C760   1.489       .  S
C242        C770   1.476       .  S
Fe243       O259   2.079       .  S
Fe243       O249   2.044       .  S
Fe243       O256   2.048       .  S
Fe243       O248   2.068       .  S
Fe243       O254   1.955       .  S
Fe244       O247   2.072       .  S
Fe244       O251   2.077       .  S
Fe244       O255   2.088       .  S
Fe244       O260   2.083       .  S
Fe244       O254   1.971       .  S
Fe245       O263   2.077       .  S
Fe245       O250   2.070       .  S
Fe245       O257   2.076       .  S
Fe245       O246   2.075       .  S
Fe245       O254   1.969       .  S
O246        C253   1.271       .  A
O247        C261   1.269       .  A
O248        C253   1.269       .  A
O249        C252   1.267       .  A
O250        C262   1.273       .  A
O251        C264   1.271       .  A
C252        O257   1.270       .  A
C252        C750   1.469       .  S
C253        C763   1.483       .  S
O255        C258   1.271       .  A
O256        C258   1.265       .  A
C258        C740   1.488       .  S
O259        C264   1.272       .  A
O260        C262   1.277       .  A
C261        O263   1.269       .  A
C261       C1103   1.495       .  S
C262        C823   1.487       .  S
C264        C733   1.476       .  S
Fe265       O281   2.060       .  S
Fe265       O271   2.046       .  S
Fe265       O278   2.056       .  S
Fe265       O270   2.064       .  S
Fe265       O276   1.950       .  S
Fe266       O269   2.067       .  S
Fe266       O273   2.058       .  S
Fe266       O277   2.076       .  S
Fe266       O282   2.060       .  S
Fe266       O276   1.969       .  S
Fe267       O285   2.078       .  S
Fe267       O272   2.068       .  S
Fe267       O279   2.070       .  S
Fe267       O268   2.080       .  S
Fe267       O276   1.966       .  S
O268        C275   1.273       .  A
O269        C283   1.268       .  A
O270        C275   1.270       .  A
O271        C274   1.265       .  A
O272        C284   1.274       .  A
O273        C286   1.268       .  A
C274        O279   1.267       .  A
C274        C723   1.461       .  S
C275        C700   1.482       .  S
O277        C280   1.268       .  A
O278        C280   1.265       .  A
C280       C1123   1.486       .  S
O281        C286   1.271       .  A
O282        C284   1.271       .  A
C283        O285   1.270       .  A
C283        C943   1.489       .  S
C284        C710   1.484       .  S
C286       C1233   1.465       .  S
Fe287       O303   2.055       .  S
Fe287       O293   2.059       .  S
Fe287       O300   2.063       .  S
Fe287       O292   2.064       .  S
Fe287       O298   1.946       .  S
Fe288       O291   2.083       .  S
Fe288       O295   2.093       .  S
Fe288       O299   2.062       .  S
Fe288       O304   2.085       .  S
Fe288       O298   1.959       .  S
Fe289       O307   2.076       .  S
Fe289       O294   2.069       .  S
Fe289       O301   2.063       .  S
Fe289       O290   2.084       .  S
Fe289       O298   1.956       .  S
O290        C297   1.269       .  A
O291        C305   1.273       .  A
O292        C297   1.267       .  A
O293        C296   1.272       .  A
O294        C306   1.273       .  A
O295        C308   1.272       .  A
C296        O301   1.270       .  A
C296        C680   1.458       .  S
C297        C690   1.495       .  S
O299        C302   1.271       .  A
O300        C302   1.272       .  A
C302        C713   1.471       .  S
O303        C308   1.266       .  A
O304        C306   1.275       .  A
C305        O307   1.269       .  A
C305       C1010   1.493   1_655  S
C306        C670   1.488   1_655  S
C308        C933   1.481       .  S
Fe309       O325   2.040       .  S
Fe309       O315   2.058       .  S
Fe309       O322   2.060       .  S
Fe309       O314   2.054       .  S
Fe309       O320   1.968       .  S
Fe310       O313   2.077       .  S
Fe310       O317   2.084       .  S
Fe310       O321   2.085       .  S
Fe310       O326   2.081   1_554  S
Fe310       O320   1.984       .  S
Fe311       O329   2.059       .  S
Fe311       O316   2.076       .  S
Fe311       O323   2.075       .  S
Fe311       O312   2.069       .  S
Fe311       O320   1.980       .  S
O312        C319   1.266       .  A
O313        C327   1.270       .  A
O314        C319   1.265       .  A
O315        C318   1.270       .  A
O316        C328   1.274   1_554  A
O317        C330   1.270       .  A
C318        O323   1.272       .  A
C318        C773   1.471       .  S
C319        C893   1.495       .  S
O321        C324   1.272       .  A
O322        C324   1.271       .  A
C324        C650   1.496       .  S
O325        C330   1.263       .  A
O326        C328   1.276       .  A
C327        O329   1.264       .  A
C327        C660   1.493   1_554  S
C328        C703   1.497       .  S
C330       C1150   1.471       .  S
Fe331       O347   2.043       .  S
Fe331       O337   2.078       .  S
Fe331       O344   2.074       .  S
Fe331       O336   2.058       .  S
Fe331       O342   1.947       .  S
Fe332       O335   2.071       .  S
Fe332       O339   2.084       .  S
Fe332       O343   2.071       .  S
Fe332       O348   2.082       .  S
Fe332       O342   1.962       .  S
Fe333       O351   2.062       .  S
Fe333       O338   2.072       .  S
Fe333       O345   2.067       .  S
Fe333       O334   2.079       .  S
Fe333       O342   1.961       .  S
O334        C341   1.271       .  A
O335        C349   1.269       .  A
O336        C341   1.264       .  A
O337        C340   1.273       .  A
O338        C350   1.275       .  A
O339        C352   1.271       .  A
C340        O345   1.269       .  A
C340       C1083   1.469       .  S
C341        C973   1.493       .  S
O343        C346   1.272       .  A
O344        C346   1.273       .  A
C346        C623   1.481       .  S
O347        C352   1.265       .  A
O348        C350   1.274       .  A
C349        O351   1.267       .  A
C349        C743   1.480       .  S
C350        C630   1.491       .  S
C352        C640   1.471       .  S
Fe353       O369   2.060       .  S
Fe353       O359   2.051       .  S
Fe353       O366   2.065       .  S
Fe353       O358   2.064       .  S
Fe353       O364   1.962       .  S
Fe354       O357   2.067       .  S
Fe354       O361   2.061       .  S
Fe354       O365   2.066       .  S
Fe354       O370   2.075       .  S
Fe354       O364   1.976       .  S
Fe355       O373   2.082       .  S
Fe355       O360   2.077   1_455  S
Fe355       O367   2.079       .  S
Fe355       O356   2.081       .  S
Fe355       O364   1.971       .  S
O356        C363   1.275       .  A
O357        C371   1.267   1_455  A
O358        C363   1.274       .  A
O359        C362   1.263       .  A
O360        C372   1.272       .  A
O361        C374   1.271       .  A
C362        O367   1.267       .  A
C362        C730   1.472       .  S
C363        C633   1.488       .  S
O365        C368   1.264       .  A
O366        C368   1.266       .  A
C368        C613   1.499       .  S
O369        C374   1.272       .  A
O370        C372   1.273   1_455  A
C371        O373   1.271   1_655  A
C371       C1163   1.493       .  S
C372        C653   1.495       .  S
C374        C603   1.458       .  S
Fe375       O391   2.059       .  S
Fe375       O381   2.052       .  S
Fe375       O388   2.050       .  S
Fe375       O380   2.060       .  S
Fe375       O386   1.965       .  S
Fe376       O379   2.064       .  S
Fe376       O383   2.080       .  S
Fe376       O387   2.070       .  S
Fe376       O392   2.086       .  S
Fe376       O386   1.983       .  S
Fe377       O395   2.068       .  S
Fe377       O382   2.064       .  S
Fe377       O389   2.073       .  S
Fe377       O378   2.077       .  S
Fe377       O386   1.976       .  S
O378        C385   1.270       .  A
O379        C393   1.267       .  A
O380        C385   1.270       .  A
O381        C384   1.265       .  A
O382        C394   1.273   1_556  A
O383        C396   1.273       .  A
C384        O389   1.267       .  A
C384       C1003   1.467       .  S
C385        C673   1.488       .  S
O387        C390   1.269       .  A
O388        C390   1.262       .  A
C390        C830   1.492       .  S
O391        C396   1.270       .  A
O392        C394   1.275   1_556  A
C393        O395   1.268       .  A
C393        C593   1.486   1_556  S
C394        C620   1.497       .  S
C396        C800   1.480       .  S
Fe397       O413   2.059       .  S
Fe397       O403   2.051       .  S
Fe397       O410   2.063       .  S
Fe397       O402   2.065       .  S
Fe397       O408   1.955       .  S
Fe398       O401   2.066       .  S
Fe398       O405   2.065       .  S
Fe398       O409   2.075       .  S
Fe398       O414   2.058       .  S
Fe398       O408   1.965       .  S
Fe399       O417   2.071       .  S
Fe399       O404   2.074       .  S
Fe399       O411   2.080       .  S
Fe399       O400   2.074       .  S
Fe399       O408   1.968       .  S
O400        C407   1.272       .  A
O401        C415   1.271       .  A
O402        C407   1.275       .  A
O403        C406   1.263       .  A
O404        C416   1.272       .  A
O405        C418   1.269       .  A
C406        O411   1.268       .  A
C406       C1213   1.470       .  S
C407        C573   1.483       .  S
O409        C412   1.270       .  A
O410        C412   1.265       .  A
C412        C663   1.496       .  S
O413        C418   1.271       .  A
O414        C416   1.266       .  A
C415        O417   1.268       .  A
C415        C853   1.496       .  S
C416        C583   1.493       .  S
C418        C720   1.465       .  S
Fe419       O435   2.036       .  S
Fe419       O425   2.051       .  S
Fe419       O432   2.056       .  S
Fe419       O424   2.046       .  S
Fe419       O430   1.954       .  S
Fe420       O423   2.081       .  S
Fe420       O427   2.084       .  S
Fe420       O431   2.090       .  S
Fe420       O436   2.068       .  S
Fe420       O430   1.970       .  S
Fe421       O439   2.064       .  S
Fe421       O426   2.079       .  S
Fe421       O433   2.084       .  S
Fe421       O422   2.086       .  S
Fe421       O430   1.967       .  S
O422        C429   1.269       .  A
O423        C437   1.271       .  A
O424        C429   1.258       .  A
O425        C428   1.273       .  A
O426        C438   1.274   1_556  A
O427        C440   1.266       .  A
C428        O433   1.276       .  A
C428       C1133   1.473       .  S
C429       C1023   1.498       .  S
O431        C434   1.280       .  A
O432        C434   1.273       .  A
C434        C580   1.483       .  S
O435        C440   1.259       .  A
O436        C438   1.270   1_556  A
C437        O439   1.271       .  A
C437        C610   1.500   1_556  S
C438        C560   1.500       .  S
C440        C843   1.472       .  S
Fe441       O457   2.037       .  S
Fe441       O447   2.072       .  S
Fe441       O454   2.063       .  S
Fe441       O446   2.055       .  S
Fe441       O452   1.961       .  S
Fe442       O445   2.083       .  S
Fe442       O449   2.074       .  S
Fe442       O453   2.083       .  S
Fe442       O458   2.068       .  S
Fe442       O452   1.978       .  S
Fe443       O461   2.062       .  S
Fe443       O448   2.069       .  S
Fe443       O455   2.064       .  S
Fe443       O444   2.070       .  S
Fe443       O452   1.974       .  S
O444        C451   1.264       .  A
O445        C459   1.269       .  A
O446        C451   1.262       .  A
O447        C450   1.276       .  A
O448        C460   1.276       .  A
O449        C462   1.267       .  A
C450        O455   1.273       .  A
C450        C920   1.473       .  S
C451        C793   1.494       .  S
O453        C456   1.272       .  A
O454        C456   1.273       .  A
C456        C550   1.492       .  S
O457        C462   1.263       .  A
O458        C460   1.273       .  A
C459        O461   1.265       .  A
C459       C1223   1.496   1_545  S
C460        C570   1.482   1_545  S
C462        C683   1.464       .  S
Fe463       O479   2.041       .  S
Fe463       O469   2.053       .  S
Fe463       O476   2.057       .  S
Fe463       O468   2.050       .  S
Fe463       O474   1.957       .  S
Fe464       O467   2.069       .  S
Fe464       O471   2.073       .  S
Fe464       O475   2.080       .  S
Fe464       O480   2.063       .  S
Fe464       O474   1.975       .  S
Fe465       O483   2.060       .  S
Fe465       O470   2.083       .  S
Fe465       O477   2.081       .  S
Fe465       O466   2.080       .  S
Fe465       O474   1.977       .  S
O466        C473   1.270       .  A
O467        C481   1.267       .  A
O468        C473   1.266       .  A
O469        C472   1.269       .  A
O470        C482   1.273       .  A
O471        C484   1.266       .  A
C472        O477   1.272       .  A
C472        C643   1.477       .  S
C473        C590   1.496       .  S
O475        C478   1.274       .  A
O476        C478   1.270       .  A
C478        C530   1.488       .  S
O479        C484   1.263       .  A
O480        C482   1.272       .  A
C481        O483   1.269       .  A
C481        C883   1.494       .  S
C482        C543   1.499       .  S
C484       C1033   1.466       .  S
Fe485       O501   2.065       .  S
Fe485       O491   2.047       .  S
Fe485       O498   2.052       .  S
Fe485       O490   2.067       .  S
Fe485       O496   1.947       .  S
Fe486       O489   2.080       .  S
Fe486       O493   2.070       .  S
Fe486       O497   2.096       .  S
Fe486       O502   2.079       .  S
Fe486       O496   1.963       .  S
Fe487       O505   2.080       .  S
Fe487       O492   2.071   1_554  S
Fe487       O499   2.083       .  S
Fe487       O488   2.075       .  S
Fe487       O496   1.963       .  S
O488        C495   1.273       .  A
O489        C503   1.273   1_554  A
O490        C495   1.270       .  A
O491        C494   1.265       .  A
O492        C504   1.271       .  A
O493        C506   1.270       .  A
C494        O499   1.270       .  A
C494        C870   1.465       .  S
C495        C540   1.481       .  S
O497        C500   1.274       .  A
O498        C500   1.265       .  A
C500       C1173   1.488       .  S
O501        C506   1.270       .  A
O502        C504   1.275   1_554  A
C503        O505   1.273   1_556  A
C503        C693   1.488       .  S
C504        C553   1.491       .  S
C506        C983   1.465       .  S
Fe507       O523   2.052       .  S
Fe507       O513   2.050       .  S
Fe507       O520   2.059       .  S
Fe507       O512   2.059       .  S
Fe507       O518   1.961       .  S
Fe508       O511   2.062       .  S
Fe508       O515   2.071       .  S
Fe508       O519   2.064       .  S
Fe508       O524   2.077       .  S
Fe508       O518   1.977       .  S
Fe509       O527   2.084       .  S
Fe509       O514   2.061   1_565  S
Fe509       O521   2.062       .  S
Fe509       O510   2.088       .  S
Fe509       O518   1.978       .  S
O510        C517   1.274       .  A
O511        C525   1.266       .  A
O512        C517   1.270       .  A
O513        C516   1.265       .  A
O514        C526   1.271       .  A
O515        C528   1.270       .  A
C516        O521   1.265       .  A
C516        C600   1.461       .  S
C517        C563   1.488       .  S
O519        C522   1.267       .  A
O520        C522   1.267       .  A
C522        C780   1.486       .  S
O523        C528   1.268       .  A
O524        C526   1.272   1_565  A
C525        O527   1.272       .  A
C525       C1040   1.493   1_565  S
C526        C533   1.492       .  S
C528        C753   1.467       .  S
C529        C530   1.408       .  A
C529        C534   1.402       .  A
C529        H536   1.084       .  S
C530        C531   1.412       .  A
C531        C532   1.397       .  A
C531       Br538   1.923       .  S
C532        C533   1.409       .  A
C532        H537   1.084       .  S
C533        C534   1.415       .  A
C534       Br535   1.921       .  S
C539        C540   1.403       .  A
C539        C544   1.404       .  A
C539        H546   1.084       .  S
C540        C541   1.408       .  A
C541        C542   1.397       .  A
C541       Br548   1.922       .  S
C542        C543   1.411       .  A
C542        H547   1.083       .  S
C543        C544   1.421       .  A
C544       Br545   1.921       .  S
C549        C550   1.404       .  A
C549        C554   1.398       .  A
C549        H556   1.083       .  S
C550        C551   1.418       .  A
C551        C552   1.405       .  A
C551       Br558   1.921       .  S
C552        C553   1.406       .  A
C552        H557   1.083       .  S
C553        C554   1.416       .  A
C554       Br555   1.923       .  S
C559        C560   1.411       .  A
C559        C564   1.404       .  A
C559        H566   1.083       .  S
C560        C561   1.420       .  A
C561        C562   1.400       .  A
C561       Br568   1.924       .  S
C562        C563   1.404       .  A
C562        H567   1.084       .  S
C563        C564   1.411       .  A
C564       Br565   1.920       .  S
C569        C570   1.402       .  A
C569        C574   1.397       .  A
C569        H576   1.083       .  S
C570        C571   1.414       .  A
C571        C572   1.399       .  A
C571       Br578   1.922       .  S
C572        C573   1.404       .  A
C572        H577   1.084       .  S
C573        C574   1.418       .  A
C574       Br575   1.923       .  S
C579        C580   1.403       .  A
C579        C584   1.396       .  A
C579        H586   1.084       .  S
C580        C581   1.411       .  A
C581        C582   1.401       .  A
C581       Br588   1.921       .  S
C582        C583   1.409       .  A
C582        H587   1.083       .  S
C583        C584   1.421       .  A
C584       Br585   1.926       .  S
C589        C590   1.411       .  A
C589        C594   1.396       .  A
C589        H596   1.083       .  S
C590        C591   1.415       .  A
C591        C592   1.405       .  A
C591       Br598   1.920       .  S
C592        C593   1.408       .  A
C592        H597   1.084   1_554  S
C593        C594   1.410       .  A
C594       Br595   1.923       .  S
C599        C600   1.402       .  A
C599        C604   1.395       .  A
C599        H606   1.085       .  S
C600        C601   1.405       .  A
C601        C602   1.395       .  A
C601       Br608   1.914       .  S
C602        C603   1.401       .  A
C602        H607   1.084       .  S
C603        C604   1.405       .  A
C604       Br605   1.920       .  S
C609        C610   1.408       .  A
C609        C614   1.399       .  A
C609        H616   1.083   1_554  S
C610        C611   1.417       .  A
C611        C612   1.405       .  A
C611       Br618   1.922       .  S
C612        C613   1.410       .  A
C612        H617   1.083       .  S
C613        C614   1.417       .  A
C614       Br615   1.924       .  S
C619        C620   1.411       .  A
C619        C624   1.397       .  A
C619        H626   1.086       .  S
C620        C621   1.418       .  A
C621        C622   1.405       .  A
C621       Br628   1.921       .  S
C622        C623   1.405       .  A
C622        H627   1.086       .  S
C623        C624   1.406       .  A
C624       Br625   1.920       .  S
C629        C630   1.407       .  A
C629        C634   1.403       .  A
C629        H636   1.083       .  S
C630        C631   1.415       .  A
C631        C632   1.399       .  A
C631       Br638   1.923       .  S
C632        C633   1.404       .  A
C632        H637   1.084       .  S
C633        C634   1.416       .  A
C634       Br635   1.921       .  S
C639        C640   1.404       .  A
C639        C644   1.402       .  A
C639        H646   1.083       .  S
C640        C641   1.407       .  A
C641        C642   1.396       .  A
C641       Br648   1.920       .  S
C642        C643   1.404       .  A
C642        H647   1.083       .  S
C643        C644   1.412       .  A
C644       Br645   1.921       .  S
C649        C650   1.406       .  A
C649        C654   1.398       .  A
C649        H656   1.083       .  S
C650        C651   1.417       .  A
C651        C652   1.406       .  A
C651       Br658   1.921       .  S
C652        C653   1.408       .  A
C652        H657   1.082       .  S
C653        C654   1.416       .  A
C654       Br655   1.924       .  S
C659        C660   1.404       .  A
C659        C664   1.401       .  A
C659        H666   1.082       .  S
C660        C661   1.417       .  A
C661        C662   1.402       .  A
C661       Br668   1.923   1_556  S
C662        C663   1.407       .  A
C662        H667   1.082       .  S
C663        C664   1.420       .  A
C664       Br665   1.924       .  S
C669        C670   1.405       .  A
C669        C674   1.402       .  A
C669        H676   1.082       .  S
C670        C671   1.413       .  A
C671        C672   1.399       .  A
C671       Br678   1.922       .  S
C672        C673   1.406       .  A
C672        H677   1.083       .  S
C673        C674   1.416       .  A
C674       Br675   1.922       .  S
C679        C680   1.395       .  A
C679        C684   1.385       .  A
C679        H686   1.085       .  S
C680        C681   1.407       .  A
C681        C682   1.405       .  A
C681       Br688   1.915       .  S
C682        C683   1.404       .  A
C682        H687   1.083       .  S
C683        C684   1.410       .  A
C684       Br685   1.918       .  S
C689        C690   1.410       .  A
C689        C694   1.405       .  A
C689        H696   1.083       .  S
C690        C691   1.414       .  A
C691        C692   1.403       .  A
C691       Br698   1.920       .  S
C692        C693   1.405       .  A
C692        H697   1.084   1_556  S
C693        C694   1.411       .  A
C694       Br695   1.920       .  S
C699        C700   1.402       .  A
C699        C704   1.403       .  A
C699        H706   1.084       .  S
C700        C701   1.408       .  A
C701        C702   1.401       .  A
C701       Br708   1.920       .  S
C702        C703   1.410       .  A
C702        H707   1.083       .  S
C703        C704   1.420       .  A
C704       Br705   1.923       .  S
C709        C710   1.408       .  A
C709        C714   1.393       .  A
C709        H716   1.082       .  S
C710        C711   1.417       .  A
C711        C712   1.399       .  A
C711       Br718   1.922       .  S
C712        C713   1.402       .  A
C712        H717   1.082       .  S
C713        C714   1.407       .  A
C714       Br715   1.922       .  S
C719        C720   1.402       .  A
C719        C724   1.396       .  A
C719        H726   1.084       .  S
C720        C721   1.410       .  A
C721        C722   1.396       .  A
C721       Br728   1.922       .  S
C722        C723   1.401       .  A
C722        H727   1.084       .  S
C723        C724   1.404       .  A
C724       Br725   1.914       .  S
C729        C730   1.402       .  A
C729        C734   1.396       .  A
C729        H736   1.085       .  S
C730        C731   1.407       .  A
C731        C732   1.407       .  A
C731       Br738   1.916       .  S
C732        C733   1.406       .  A
C732        H737   1.083       .  S
C733        C734   1.407       .  A
C734       Br735   1.917       .  S
C739        C740   1.410       .  A
C739        C744   1.398       .  A
C739        H746   1.083       .  S
C740        C741   1.413       .  A
C741        C742   1.401       .  A
C741       Br748   1.920       .  S
C742        C743   1.407       .  A
C742        H747   1.083       .  S
C743        C744   1.407       .  A
C744       Br745   1.921       .  S
C749        C750   1.406       .  A
C749        C754   1.403       .  A
C749        H756   1.083       .  S
C750        C751   1.405       .  A
C751        C752   1.390       .  A
C751       Br758   1.917       .  S
C752        C753   1.399       .  A
C752        H757   1.079       .  S
C753        C754   1.408       .  A
C754       Br755   1.919       .  S
C759        C760   1.405       .  A
C759        C764   1.400       .  A
C759        H766   1.084       .  S
C760        C761   1.414       .  A
C761        C762   1.404       .  A
C761       Br768   1.921       .  S
C762        C763   1.405       .  A
C762        H767   1.084       .  S
C763        C764   1.412       .  A
C764       Br765   1.920       .  S
C769        C770   1.406       .  A
C769        C774   1.402       .  A
C769        H776   1.082       .  S
C770        C771   1.410       .  A
C771        C772   1.397       .  A
C771       Br778   1.918       .  S
C772        C773   1.402       .  A
C772        H777   1.082       .  S
C773        C774   1.408       .  A
C774       Br775   1.919       .  S
C779        C780   1.409       .  A
C779        C784   1.399       .  A
C779        H786   1.084       .  S
C780        C781   1.414       .  A
C781        C782   1.399       .  A
C781       Br788   1.921       .  S
C782        C783   1.403       .  A
C782        H787   1.085       .  S
C783        C784   1.408       .  A
C784       Br785   1.921       .  S
C789        C790   1.405       .  A
C789        C794   1.401       .  A
C789        H796   1.083       .  S
C790        C791   1.409       .  A
C791        C792   1.402       .  A
C791       Br798   1.921       .  S
C792        C793   1.411       .  A
C792        H797   1.083       .  S
C793        C794   1.415       .  A
C794       Br795   1.921       .  S
C799        C800   1.407       .  A
C799        C804   1.409       .  A
C799        H806   1.083       .  S
C800        C801   1.409       .  A
C801        C802   1.387       .  A
C801       Br808   1.915       .  S
C802        C803   1.401       .  A
C802        H807   1.081       .  S
C803        C804   1.415       .  A
C804       Br805   1.917       .  S
C809        C810   1.405       .  A
C809        C814   1.398       .  A
C809        H816   1.083       .  S
C810        C811   1.416       .  A
C811        C812   1.401       .  A
C811       Br818   1.921       .  S
C812        C813   1.406       .  A
C812        H817   1.083       .  S
C813        C814   1.415       .  A
C814       Br815   1.923       .  S
C819        C820   1.401       .  A
C819        C824   1.400       .  A
C819        H826   1.084       .  S
C820        C821   1.412       .  A
C821        C822   1.401       .  A
C821       Br828   1.920       .  S
C822        C823   1.404       .  A
C822        H827   1.084       .  S
C823        C824   1.416       .  A
C824       Br825   1.922       .  S
C829        C830   1.407       .  A
C829        C834   1.397       .  A
C829        H836   1.083       .  S
C830        C831   1.421       .  A
C831        C832   1.400       .  A
C831       Br838   1.924       .  S
C832        C833   1.401       .  A
C832        H837   1.083       .  S
C833        C834   1.413       .  A
C834       Br835   1.923       .  S
C839        C840   1.406       .  A
C839        C844   1.406       .  A
C839        H846   1.083       .  S
C840        C841   1.405       .  A
C841        C842   1.392       .  A
C841       Br848   1.919       .  S
C842        C843   1.403       .  A
C842        H847   1.085       .  S
C843        C844   1.407       .  A
C844       Br845   1.915       .  S
C849        C850   1.406       .  A
C849        C854   1.401       .  A
C849        H856   1.083       .  S
C850        C851   1.414       .  A
C851        C852   1.399       .  A
C851       Br858   1.922       .  S
C852        C853   1.408       .  A
C852        H857   1.083       .  S
C853        C854   1.419       .  A
C854       Br855   1.923       .  S
C859        C860   1.405       .  A
C859        C864   1.398       .  A
C859        H866   1.084       .  S
C860        C861   1.415       .  A
C861        C862   1.397       .  A
C861       Br868   1.923       .  S
C862        C863   1.400       .  A
C862        H867   1.084       .  S
C863        C864   1.411       .  A
C864       Br865   1.921       .  S
C869        C870   1.402       .  A
C869        C874   1.395       .  A
C869        H876   1.085       .  S
C870        C871   1.405       .  A
C871        C872   1.402       .  A
C871       Br878   1.916       .  S
C872        C873   1.404       .  A
C872        H877   1.084       .  S
C873        C874   1.407       .  A
C874       Br875   1.920       .  S
C879        C880   1.406       .  A
C879        C884   1.401       .  A
C879        H886   1.083       .  S
C880        C881   1.413       .  A
C881        C882   1.397       .  A
C881       Br888   1.923       .  S
C882        C883   1.408       .  A
C882        H887   1.083       .  S
C883        C884   1.419       .  A
C884       Br885   1.923       .  S
C889        C890   1.406       .  A
C889        C894   1.400       .  A
C889        H896   1.083       .  S
C890        C891   1.410       .  A
C891        C892   1.401       .  A
C891       Br898   1.921       .  S
C892        C893   1.411       .  A
C892        H897   1.082       .  S
C893        C894   1.416       .  A
C894       Br895   1.923       .  S
C899        C900   1.407       .  A
C899        C904   1.404       .  A
C899        H906   1.084       .  S
C900        C901   1.417       .  A
C901        C902   1.400       .  A
C901       Br908   1.922       .  S
C902        C903   1.403       .  A
C902        H907   1.084       .  S
C903        C904   1.415       .  A
C904       Br905   1.920       .  S
C909        C910   1.403       .  A
C909        C914   1.394       .  A
C909        H916   1.083       .  S
C910        C911   1.415       .  A
C911        C912   1.405       .  A
C911       Br918   1.920       .  S
C912        C913   1.409       .  A
C912        H917   1.083       .  S
C913        C914   1.418       .  A
C914       Br915   1.926       .  S
C919        C920   1.405       .  A
C919        C924   1.402       .  A
C919        H926   1.083       .  S
C920        C921   1.408       .  A
C921        C922   1.393       .  A
C921       Br928   1.921       .  S
C922        C923   1.405       .  A
C922        H927   1.083       .  S
C923        C924   1.412       .  A
C924       Br925   1.919       .  S
C929        C930   1.402       .  A
C929        C934   1.399       .  A
C929        H936   1.085       .  S
C930        C931   1.407       .  A
C931        C932   1.405       .  A
C931       Br938   1.919       .  S
C932        C933   1.407       .  A
C932        H937   1.085       .  S
C933        C934   1.409       .  A
C934       Br935   1.915       .  S
C939        C940   1.410       .  A
C939        C944   1.402       .  A
C939        H946   1.084       .  S
C940        C941   1.413       .  A
C941        C942   1.402       .  A
C941       Br948   1.921       .  S
C942        C943   1.408       .  A
C942        H947   1.084       .  S
C943        C944   1.411       .  A
C944       Br945   1.920       .  S
C949        C950   1.403       .  A
C949        C954   1.393       .  A
C949        H956   1.082       .  S
C950        C951   1.406       .  A
C951        C952   1.399       .  A
C951       Br958   1.918       .  S
C952        C953   1.405       .  A
C952        H957   1.083       .  S
C953        C954   1.408       .  A
C954       Br955   1.921       .  S
C959        C960   1.404       .  A
C959        C964   1.403       .  A
C959        H966   1.083       .  S
C960        C961   1.413       .  A
C961        C962   1.400       .  A
C961       Br968   1.922       .  S
C962        C963   1.408       .  A
C962        H967   1.083       .  S
C963        C964   1.421       .  A
C964       Br965   1.923       .  S
C969        C970   1.405       .  A
C969        C974   1.402       .  A
C969        H976   1.083       .  S
C970        C971   1.415       .  A
C971        C972   1.399       .  A
C971       Br978   1.923   1_455  S
C972        C973   1.406       .  A
C972        H977   1.083       .  S
C973        C974   1.419       .  A
C974       Br975   1.922       .  S
C979        C980   1.400       .  A
C979        C984   1.395       .  A
C979        H986   1.083       .  S
C980        C981   1.407       .  A
C981        C982   1.402       .  A
C981       Br988   1.917       .  S
C982        C983   1.404       .  A
C982        H987   1.083       .  S
C983        C984   1.406       .  A
C984       Br985   1.918       .  S
C989        C990   1.403       .  A
C989        C994   1.401       .  A
C989        H996   1.083       .  S
C990        C991   1.409       .  A
C991        C992   1.398       .  A
C991       Br998   1.913       .  S
C992        C993   1.398       .  A
C992        H997   1.084       .  S
C993        C994   1.407       .  A
C994       Br995   1.916       .  S
C999       C1000   1.401       .  A
C999       C1004   1.396       .  A
C999       H1006   1.084       .  S
C1000      C1001   1.407       .  A
C1001      C1002   1.400       .  A
C1001     Br1008   1.918       .  S
C1002      C1003   1.402       .  A
C1002      H1007   1.082       .  S
C1003      C1004   1.407       .  A
C1004     Br1005   1.917       .  S
C1009      C1010   1.404       .  A
C1009      C1014   1.406       .  A
C1009      H1016   1.083       .  S
C1010      C1011   1.416       .  A
C1011      C1012   1.401       .  A
C1011     Br1018   1.923   1_455  S
C1012      C1013   1.407       .  A
C1012      H1017   1.083       .  S
C1013      C1014   1.421       .  A
C1014     Br1015   1.919       .  S
C1019      C1020   1.404       .  A
C1019      C1024   1.401       .  A
C1019      H1026   1.082       .  S
C1020      C1021   1.417       .  A
C1021      C1022   1.404       .  A
C1021     Br1028   1.922   1_565  S
C1022      C1023   1.406       .  A
C1022      H1027   1.082       .  S
C1023      C1024   1.422       .  A
C1024     Br1025   1.926       .  S
C1029      C1030   1.408       .  A
C1029      C1034   1.404       .  A
C1029      H1036   1.080       .  S
C1030      C1031   1.413       .  A
C1031      C1032   1.393       .  A
C1031     Br1038   1.917       .  S
C1032      C1033   1.399       .  A
C1032      H1037   1.082       .  S
C1033      C1034   1.406       .  A
C1034     Br1035   1.918       .  S
C1039      C1040   1.403       .  A
C1039      C1044   1.402       .  A
C1039      H1046   1.083       .  S
C1040      C1041   1.417       .  A
C1041      C1042   1.403       .  A
C1041     Br1048   1.923   1_545  S
C1042      C1043   1.406       .  A
C1042      H1047   1.083       .  S
C1043      C1044   1.421       .  A
C1044     Br1045   1.923       .  S
C1049      C1050   1.407       .  A
C1049      C1054   1.403       .  A
C1049      H1056   1.083       .  S
C1050      C1051   1.419       .  A
C1051      C1052   1.399       .  A
C1051     Br1058   1.924       .  S
C1052      C1053   1.405       .  A
C1052      H1057   1.083       .  S
C1053      C1054   1.418       .  A
C1054     Br1055   1.923       .  S
C1059      C1060   1.409       .  A
C1059      C1064   1.404       .  A
C1059      H1066   1.083       .  S
C1060      C1061   1.412       .  A
C1061      C1062   1.400       .  A
C1061     Br1068   1.920       .  S
C1062      C1063   1.409       .  A
C1062      H1067   1.084       .  S
C1063      C1064   1.415       .  A
C1064     Br1065   1.921       .  S
C1069      C1070   1.408       .  A
C1069      C1074   1.404       .  A
C1069      H1076   1.083       .  S
C1070      C1071   1.411       .  A
C1071      C1072   1.400       .  A
C1071     Br1078   1.918       .  S
C1072      C1073   1.410       .  A
C1072      H1077   1.083       .  S
C1073      C1074   1.418       .  A
C1074     Br1075   1.922       .  S
C1079      C1080   1.402       .  A
C1079      C1084   1.391       .  A
C1079      H1086   1.084       .  S
C1080      C1081   1.408       .  A
C1081      C1082   1.408       .  A
C1081     Br1088   1.916       .  S
C1082      C1083   1.407       .  A
C1082      H1087   1.082       .  S
C1083      C1084   1.403       .  A
C1084     Br1085   1.918       .  S
C1089      C1090   1.404       .  A
C1089      C1094   1.396       .  A
C1089      H1096   1.082       .  S
C1090      C1091   1.409       .  A
C1091      C1092   1.403       .  A
C1091     Br1098   1.919       .  S
C1092      C1093   1.407       .  A
C1092      H1097   1.082       .  S
C1093      C1094   1.408       .  A
C1094     Br1095   1.920       .  S
C1099      C1100   1.409       .  A
C1099      C1104   1.403       .  A
C1099      H1106   1.083       .  S
C1100      C1101   1.415       .  A
C1101      C1102   1.403       .  A
C1101     Br1108   1.922       .  S
C1102      C1103   1.408       .  A
C1102      H1107   1.083       .  S
C1103      C1104   1.414       .  A
C1104     Br1105   1.921       .  S
C1109      C1110   1.407       .  A
C1109      C1114   1.402       .  A
C1109      H1116   1.082       .  S
C1110      C1111   1.417       .  A
C1111      C1112   1.400       .  A
C1111     Br1118   1.923       .  S
C1112      C1113   1.404       .  A
C1112      H1117   1.083       .  S
C1113      C1114   1.415       .  A
C1114     Br1115   1.921       .  S
C1119      C1120   1.407       .  A
C1119      C1124   1.401       .  A
C1119      H1126   1.084   1_655  S
C1120      C1121   1.412       .  A
C1121      C1122   1.399       .  A
C1121     Br1128   1.922       .  S
C1122      C1123   1.407       .  A
C1122      H1127   1.083       .  S
C1123      C1124   1.412       .  A
C1124     Br1125   1.920       .  S
C1129      C1130   1.402       .  A
C1129      C1134   1.396       .  A
C1129      H1136   1.082       .  S
C1130      C1131   1.408       .  A
C1131      C1132   1.398       .  A
C1131     Br1138   1.911       .  S
C1132      C1133   1.403       .  A
C1132      H1137   1.083       .  S
C1133      C1134   1.409       .  A
C1134     Br1135   1.916       .  S
C1139      C1140   1.408       .  A
C1139      C1144   1.399       .  A
C1139      H1146   1.083       .  S
C1140      C1141   1.418       .  A
C1141      C1142   1.401       .  A
C1141     Br1148   1.923       .  S
C1142      C1143   1.404       .  A
C1142      H1147   1.084       .  S
C1143      C1144   1.411       .  A
C1144     Br1145   1.921       .  S
C1149      C1150   1.403       .  A
C1149      C1154   1.397       .  A
C1149      H1156   1.084       .  S
C1150      C1151   1.407       .  A
C1151      C1152   1.401       .  A
C1151     Br1158   1.917       .  S
C1152      C1153   1.406       .  A
C1152      H1157   1.084       .  S
C1153      C1154   1.411       .  A
C1154     Br1155   1.922       .  S
C1159      C1160   1.406       .  A
C1159      C1164   1.402       .  A
C1159      H1166   1.083       .  S
C1160      C1161   1.419       .  A
C1161      C1162   1.403       .  A
C1161     Br1168   1.923       .  S
C1162      C1163   1.404       .  A
C1162      H1167   1.083       .  S
C1163      C1164   1.416       .  A
C1164     Br1165   1.922   1_655  S
C1169      C1170   1.403       .  A
C1169      C1174   1.400       .  A
C1169      H1176   1.083       .  S
C1170      C1171   1.415       .  A
C1171      C1172   1.405       .  A
C1171     Br1178   1.921   1_545  S
C1172      C1173   1.405       .  A
C1172      H1177   1.082       .  S
C1173      C1174   1.417       .  A
C1174     Br1175   1.924       .  S
C1179      C1180   1.406       .  A
C1179      C1184   1.410       .  A
C1179      H1186   1.083       .  S
C1180      C1181   1.412       .  A
C1181      C1182   1.389       .  A
C1181     Br1188   1.916       .  S
C1182      C1183   1.396       .  A
C1182      H1187   1.085       .  S
C1183      C1184   1.410       .  A
C1184     Br1185   1.916       .  S
C1189      C1190   1.403       .  A
C1189      C1194   1.403       .  A
C1189      H1196   1.084       .  S
C1190      C1191   1.412       .  A
C1191      C1192   1.401       .  A
C1191     Br1198   1.920       .  S
C1192      C1193   1.406       .  A
C1192      H1197   1.084       .  S
C1193      C1194   1.417       .  A
C1194     Br1195   1.922       .  S
C1199      C1200   1.405       .  A
C1199      C1204   1.397       .  A
C1199      H1206   1.083       .  S
C1200      C1201   1.420       .  A
C1201      C1202   1.400       .  A
C1201     Br1208   1.923       .  S
C1202      C1203   1.404       .  A
C1202      H1207   1.083       .  S
C1203      C1204   1.418       .  A
C1204     Br1205   1.925       .  S
C1209      C1210   1.405       .  A
C1209      C1214   1.405       .  A
C1209      H1216   1.083       .  S
C1210      C1211   1.405       .  A
C1211      C1212   1.395       .  A
C1211     Br1218   1.919       .  S
C1212      C1213   1.402       .  A
C1212      H1217   1.084       .  S
C1213      C1214   1.407       .  A
C1214     Br1215   1.917       .  S
C1219      C1220   1.411       .  A
C1219      C1224   1.404       .  A
C1219      H1226   1.083       .  S
C1220      C1221   1.415       .  A
C1221      C1222   1.404       .  A
C1221     Br1228   1.921       .  S
C1222      C1223   1.409       .  A
C1222      H1227   1.083   1_565  S
C1223      C1224   1.413       .  A
C1224     Br1225   1.921       .  S
C1229      C1230   1.407       .  A
C1229      C1234   1.402       .  A
C1229      H1236   1.082       .  S
C1230      C1231   1.406       .  A
C1231      C1232   1.388       .  A
C1231     Br1238   1.919       .  S
C1232      C1233   1.399       .  A
C1232      H1237   1.081       .  S
C1233      C1234   1.407       .  A
C1234     Br1235   1.918       .  S
C1239      C1240   1.405       .  A
C1239      C1244   1.405       .  A
C1239      H1246   1.083       .  S
C1240      C1241   1.413       .  A
C1241      C1242   1.399       .  A
C1241     Br1248   1.921       .  S
C1242      C1243   1.407       .  A
C1242      H1247   1.083       .  S
C1243      C1244   1.421       .  A
C1244     Br1245   1.923       .  S
