geometry optimzed in LAMMPS
_audit_creation_date              2020-11-30 
_audit_creation_method            'lammps2cif' 
_symmetry_space_group_name_H-M    'P1' 
_symmetry_Int_Tables_number       1 
_symmetry_cell_setting            triclinic 
loop_ 
_symmetry_equiv_pos_as_xyz 
  x,y,z 
_cell_length_a                    45.35248557223431 
_cell_length_b                    45.383133931863625 
_cell_length_c                    33.86344515109731 
_cell_angle_alpha                 90.55481891943252 
_cell_angle_beta                  89.70945830159059 
_cell_angle_gamma                 120.36392582149126 
loop_ 
_atom_site_label 
_atom_site_type_symbol 
_atom_site_fract_x 
_atom_site_fract_y 
_atom_site_fract_z 
_atom_site_charge 
Zn1        Zn  0.08624416  0.35146705  0.07532332     1.49720
Zn2        Zn  0.14350859  0.38838332  0.13823115     1.49360
Zn3        Zn  0.13903208  0.42524872  0.06699855     1.49110
Zn4        Zn  0.08618463  0.40873409  0.13093498     1.49480
O5          O  0.11249529  0.39225901  0.10440966    -1.83130
O6          O  0.08480394  0.31067147  0.10558929    -0.73760
O7          O  0.19016084  0.40524978  0.10852003    -0.73580
O8          O  0.11349527  0.41502337  0.01817094    -0.73100
O9          O  0.12451455  0.33948532  0.15109287    -0.73780
O10         O  0.10475200  0.36201585  0.01838592    -0.73380
O11         O  0.17921293  0.42152665  0.05141578    -0.73960
O12         O  0.11267172  0.46128251  0.13222233    -0.73350
O13         O  0.13840387  0.40439645  0.19257916    -0.74110
O14         O  0.15372225  0.47117792  0.08895721    -0.73500
O15         O  0.08468246  0.39410870  0.18660972    -0.73970
O16         O  0.03786910  0.38627280  0.10686504    -0.73870
O17         O  0.03913945  0.34481647  0.07218179    -0.73660
C18         C  0.10124209  0.31143403  0.13674004     0.78130
C19         C  0.19769770  0.41422621  0.07221313     0.78620
C20         C  0.11005785  0.38898246  0.50000957     0.77580
C21         C  0.14076980  0.48169953  0.11496514     0.77950
C22         C  0.10933916  0.39690381  0.20742284     0.79090
C23         C  0.02344379  0.35990928  0.08430179     0.78140
Zn24       Zn  0.11144210  0.35666510  0.31804404     1.49360
Zn25       Zn  0.09233375  0.41426749  0.32709374     1.49360
Zn26       Zn  0.07576054  0.36116655  0.39017753     1.49110
Zn27       Zn  0.14922989  0.41410715  0.38194246     1.49480
O28         O  0.10863181  0.38804736  0.35288132    -1.83130
O29         O  0.09615466  0.36224961  0.26391712    -0.73760
O30         O  0.03991605  0.38716589  0.32624145    -0.73580
O31         O  0.08039156  0.32168567  0.40485377    -0.73100
O32         O  0.10702779  0.41606620  0.27112195    -0.73780
O33         O  0.09478143  0.30978792  0.34663219    -0.73380
O34         O  0.03010411  0.34564100  0.36817782    -0.73960
O35         O  0.13822714  0.39576157  0.43876957    -0.73350
O36         O  0.11472363  0.46253153  0.35162927    -0.74110
O37         O  0.08491435  0.38621019  0.43950390    -0.73500
O38         O  0.15664883  0.46166282  0.38502875    -0.73970
O39         O  0.18938036  0.41325758  0.35239391    -0.73870
O40         O  0.16000870  0.37463552  0.30573052    -0.73660
C41         C  0.10394095  0.39141952  0.24967815     0.78130
C42         C  0.01966520  0.35867660  0.34268794     0.78620
C43         C  0.08707860  0.30289313  0.38333944     0.77580
C44         C  0.11114569  0.39003205  0.45738891     0.77950
C45         C  0.14136369  0.47720747  0.37353762     0.79090
C46         C  0.18815027  0.39643958  0.32113681     0.78140
Zn47       Zn  0.11587471  0.24780682  0.22233690     1.49720
Zn48       Zn  0.07475805  0.20657627  0.15241187     1.49360
Zn49       Zn  0.14879452  0.22575358  0.15812616     1.49110
Zn50       Zn  0.09191079  0.16979464  0.21555771     1.49480
O51         O  0.10875518  0.21193381  0.18797545    -1.83130
O52         O  0.10663429  0.28155903  0.19151623    -0.73760
O53         O  0.08139919  0.18855132  0.10280760    -0.73580
O54         O  0.19126704  0.26598737  0.18784462    -0.73100
O55         O  0.08072175  0.25185988  0.13728200    -0.73780
O56         O  0.16414772  0.27423038  0.23749996    -0.73380
O57         O  0.13634052  0.22959290  0.10010976    -0.73960
O58         O  0.11358539  0.14303433  0.19233601    -0.73350
O59         O  0.02970174  0.17653700  0.17655925    -0.74110
O60         O  0.15479989  0.18548586  0.15735517    -0.73500
O61         O  0.03913348  0.14422824  0.21783603    -0.73970
O62         O  0.10807074  0.18472457  0.27076594    -0.73870
O63         O  0.09806133  0.22823586  0.27592961    -0.73660
C64         C  0.09514484  0.27982087  0.15643886     0.78130
C65         C  0.10792694  0.20842788  0.08316756     0.78620
C66         C  0.19164134  0.27998642  0.22122383     0.77580
C67         C  0.13998134  0.15496779  0.17006939     0.77950
C68         C  0.01904842  0.15275600  0.20190599     0.79090
C69         C  0.10566742  0.20716021  0.29118954     0.78140
Zn70       Zn  0.09314699  0.16990574  0.46494787     1.49720
Zn71       Zn  0.11082730  0.24635352  0.46991735     1.49360
Zn72       Zn  0.14990022  0.22649939  0.40878234     1.49110
Zn73       Zn  0.07615954  0.20412394  0.39977410     1.49480
O74         O  0.10912563  0.21162312  0.43728518    -1.83130
O75         O  0.10889539  0.18590293  0.02069249    -0.73760
O76         O  0.15879488  0.27848186  0.48262233    -0.73580
O77         O  0.15962027  0.18812432  0.41046012    -0.73100
O78         O  0.09524212  0.22699402  0.02427267    -0.73780
O79         O  0.11614784  0.14392291  0.44106206    -0.73380
O80         O  0.18931630  0.26944427  0.43762209    -0.73960
O81         O  0.08434640  0.18458317  0.35294980    -0.73350
O82         O  0.09367042  0.27467729  0.43937671    -0.74110
O83         O  0.13716479  0.22966628  0.35079193    -0.73500
O84         O  0.08158707  0.24819554  0.38121669    -0.73970
O85         O  0.03076446  0.17529602  0.42365315    -0.73870
O86         O  0.04025057  0.14446791  0.46712468    -0.73660
C87         C  0.10447718  0.20750056  0.04044251     0.78130
C88         C  0.18729158  0.28528801  0.46821705     0.78620
C89         C  0.14438807  0.15715144  0.42181530     0.77580
C90         C  0.10960659  0.20703990  0.33358532     0.77950
C91         C  0.08716203  0.27367576  0.40230219     0.79090
C92         C  0.02018327  0.15263421  0.45034358     0.78140
Zn93       Zn  0.33261980  0.40789109  0.49525283     1.49720
Zn94       Zn  0.29743445  0.42637364  0.05879497     1.49360
Zn95       Zn  0.25690828  0.39155421  0.48628324     1.49110
Zn96       Zn  0.27386228  0.35119056  0.04739065     1.49480
O97         O  0.29013008  0.39294225  0.02104488    -1.83130
O98         O  0.35915982  0.45987769  0.49350441    -0.73760
O99         O  0.25309393  0.42185399  0.07442156    -0.73580
O100        O  0.27946961  0.40807668  0.43301551    -0.73100
O101        O  0.32954206  0.47250535  0.03632598    -0.73780
O102        O  0.31901257  0.39257456  0.43927897    -0.73380
O103        O  0.22704340  0.40795547  0.51617603    -0.73960
O104        O  0.23190019  0.31260467  0.01682356    -0.73350
O105        O  0.31207635  0.41548817  0.10768217    -0.74110
O106        O  0.22491730  0.34366333  0.47149584    -0.73500
O107        O  0.26842063  0.36159708  0.10545717    -0.73970
O108        O  0.31188149  0.34089363  0.04684368    -0.73870
O109        O  0.35772379  0.38528734  0.52001210    -0.73660
C110        C  0.35260435  0.48132818  0.00998347     0.78130
C111        C  0.22754803  0.41505632  0.05313389     0.78620
C112        C  0.29900354  0.39797802  0.41819506     0.77580
C113        C  0.21722345  0.31498268  0.98569991     0.77950
C114        C  0.28978622  0.38846611  0.12477654     0.79090
C115        C  0.34347938  0.35651636  0.03764601     0.78140
Zn116      Zn  0.27380123  0.41313718  0.24287699     1.49720
Zn117      Zn  0.25626960  0.35958740  0.30759209     1.49360
Zn118      Zn  0.29584434  0.36032087  0.23613703     1.49110
Zn119      Zn  0.33200174  0.41703037  0.29865866     1.49480
O120        O  0.28991633  0.38901267  0.27191467    -1.83130
O121        O  0.23130009  0.41032087  0.27133352    -0.73760
O122        O  0.22257081  0.31536007  0.27656474    -0.73580
O123        O  0.31060326  0.38352330  0.18558626    -0.73100
O124        O  0.22799002  0.37913896  0.32315626    -0.73780
O125        O  0.26823313  0.39520581  0.18578719    -0.73380
O126        O  0.25125669  0.31937306  0.22158238    -0.73960
O127        O  0.35963819  0.39309635  0.29936863    -0.73350
O128        O  0.27839547  0.36329078  0.36069455    -0.74110
O129        O  0.32792943  0.34816122  0.26012885    -0.73500
O130        O  0.31893946  0.41831634  0.35468822    -0.73970
O131        O  0.35641431  0.46484066  0.27543879    -0.73870
O132        O  0.31268725  0.46144084  0.24141203    -0.73660
C133        C  0.21850016  0.39706930  0.30496491     0.78130
C134        C  0.22369190  0.30546632  0.24113183     0.78620
C135        C  0.28920687  0.38874401  0.16748284     0.77580
C136        C  0.35219021  0.36415437  0.28468809     0.77950
C137        C  0.29879989  0.39280842  0.37573591     0.79090
C138        C  0.34351271  0.47827933  0.25365642     0.78140
Zn139      Zn  0.36482296  0.10933198  0.26476589     1.49720
Zn140      Zn  0.41965894  0.14342183  0.20069391     1.49360
Zn141      Zn  0.41942383  0.08744738  0.25788792     1.49110
Zn142      Zn  0.36471038  0.06934454  0.19412163     1.49480
O143        O  0.39375902  0.10331089  0.23010208    -1.83130
O144        O  0.38655235  0.15749135  0.28012904    -0.73760
O145        O  0.46703857  0.15147991  0.20063166    -0.73580
O146        O  0.41977170  0.10254325  0.31376340    -0.73100
O147        O  0.41822099  0.18424920  0.22780615    -0.73780
O148        O  0.36554270  0.09076522  0.31771885    -0.73380
O149        O  0.46830841  0.11038771  0.23515906    -0.73960
O150        O  0.34972408  0.02446674  0.21734847    -0.73350
O151        O  0.40332187  0.13127387  0.14321678    -0.74110
O152        O  0.39224170  0.03477277  0.25844047    -0.73500
O153        O  0.38885482  0.07636517  0.14443639    -0.73970
O154        O  0.32505191  0.07453728  0.17933303    -0.73870
O155        O  0.32113355  0.09918498  0.23454058    -0.73660
C156        C  0.40534580  0.18464916  0.26150859     0.78130
C157        C  0.48287954  0.13690958  0.21329109     0.78620
C158        C  0.39421980  0.09889470  0.33370781     0.77580
C159        C  0.36338187  0.01431986  0.24241351     0.77950
C160        C  0.39569949  0.10312970  0.12563754     0.79090
C161        C  0.31118320  0.08803246  0.19925837     0.78140
Zn162      Zn  0.36789126  0.06883469  0.44415557     1.49720
Zn163      Zn  0.42166351  0.09100980  0.00935994     1.49360
Zn164      Zn  0.42064528  0.14387484  0.45018868     1.49110
Zn165      Zn  0.36332132  0.10865680  0.01255963     1.49480
O166        O  0.39459894  0.10409156  0.47987365    -1.83130
O167        O  0.35475746  0.02394714  0.46936291    -0.73760
O168        O  0.47026133  0.11304213  0.98675904    -0.73580
O169        O  0.40270538  0.13036277  0.39319300    -0.73100
O170        O  0.39720744  0.03916446  0.01252814    -0.73780
O171        O  0.39423384  0.07743570  0.39571794    -0.73380
O172        O  0.46805907  0.15147601  0.44824954    -0.73960
O173        O  0.38312277  0.15727342  0.02688878    -0.73350
O174        O  0.42077341  0.10707676  0.06410175    -0.74110
O175        O  0.42126766  0.18507260  0.47973152    -0.73500
O176        O  0.36513506  0.09094261  0.06603520    -0.73970
O177        O  0.31830881  0.09360964  0.98145891    -0.73870
O178        O  0.32769500  0.07255557  0.42642140    -0.73660
C179        C  0.36957466  0.01655179  0.49615358     0.78130
C180        C  0.48424705  0.13779024  0.46243577     0.78620
C181        C  0.39757397  0.10269752  0.37621219     0.77580
C182        C  0.40578836  0.18496623  0.51169400     0.77950
C183        C  0.39385475  0.10073736  0.08305637     0.79090
C184        C  0.31050917  0.08285147  0.44565027     0.78140
Zn185      Zn  0.39204168  0.25029862  0.09762756     1.49720
Zn186      Zn  0.41454458  0.32790401  0.08756658     1.49360
Zn187      Zn  0.43037809  0.28909529  0.02519335     1.49110
Zn188      Zn  0.35558572  0.26863496  0.03523041     1.49480
O189        O  0.39724901  0.28443712  0.06224841    -1.83130
O190        O  0.41223324  0.27315735  0.14973249    -0.73760
O191        O  0.46749122  0.35352888  0.08841068    -0.73580
O192        O  0.42517070  0.24406691  0.01117821    -0.73100
O193        O  0.40015690  0.31517273  0.14392054    -0.73780
O194        O  0.40149300  0.21616201  0.06669542    -0.73380
O195        O  0.47636758  0.32026214  0.04715145    -0.73960
O196        O  0.36525556  0.26284557  0.47713362    -0.73350
O197        O  0.39092158  0.35267616  0.06334495    -0.74110
O198        O  0.42058459  0.30334575  0.47529367    -0.73500
O199        O  0.34633598  0.30691925  0.03595929    -0.73970
O200        O  0.31543184  0.22833521  0.06550434    -0.73870
O201        O  0.34403848  0.22300712  0.11512489    -0.73660
C202        C  0.40398719  0.29406065  0.16478215     0.78130
C203        C  0.48736526  0.34451171  0.07237897     0.78620
C204        C  0.41195251  0.21689760  0.03116440     0.77580
C205        C  0.39268577  0.28281504  0.45805979     0.77950
C206        C  0.36191470  0.33836452  0.04570212     0.79090
C207        C  0.31603770  0.21557874  0.09896084     0.78140
Zn208      Zn  0.42261718  0.32687885  0.28491174     1.49720
Zn209      Zn  0.41887390  0.26873941  0.34034812     1.49360
Zn210      Zn  0.36471226  0.28916168  0.34549757     1.49110
Zn211      Zn  0.36711234  0.25065726  0.27409108     1.49480
O212        O  0.39481463  0.28464162  0.31081321    -1.83130
O213        O  0.47020983  0.35117240  0.30894219    -0.73760
O214        O  0.40061611  0.26257459  0.39688589    -0.73580
O215        O  0.35277146  0.32159657  0.32180192    -0.73100
O216        O  0.46702094  0.30772880  0.34305547    -0.73780
O217        O  0.39870513  0.35446458  0.28485406    -0.73380
O218        O  0.38609621  0.30291559  0.39752543    -0.73960
O219        O  0.32368024  0.21445114  0.30428603    -0.73350
O220        O  0.41651908  0.22644941  0.31219679    -0.74110
O221        O  0.32425072  0.24368292  0.35756776    -0.73500
O222        O  0.38989073  0.22570699  0.25706370    -0.73970
O223        O  0.36939867  0.27285931  0.22186477    -0.73870
O224        O  0.42406497  0.31439648  0.22854051    -0.73660
C225        C  0.48367977  0.33852348  0.33106952     0.78130
C226        C  0.39272875  0.28242337  0.41536782     0.78620
C227        C  0.36939754  0.34658858  0.29854156     0.77580
C228        C  0.31244232  0.21566116  0.33885716     0.77950
C229        C  0.40594587  0.21510304  0.27715433     0.79090
C230        C  0.39876036  0.29385059  0.20717192     0.78140
Zn231      Zn  0.17353844  0.08003237  0.17345804     1.49720
Zn232      Zn  0.21192906  0.13536550  0.11171537     1.49360
Zn233      Zn  0.25133703  0.13552001  0.18317163     1.49110
Zn234      Zn  0.23182203  0.08162247  0.11727290     1.49480
O235        O  0.21663573  0.10661482  0.14746280    -1.83130
O236        O  0.14721471  0.10615698  0.17464633    -0.73760
O237        O  0.25690250  0.17569571  0.09884627    -0.73580
O238        O  0.22979371  0.13188823  0.23666618    -0.73100
O239        O  0.18042523  0.14873197  0.13422165    -0.73780
O240        O  0.18604531  0.07822859  0.22947897    -0.73380
O241        O  0.28547475  0.17987904  0.15373211    -0.73960
O242        O  0.27167584  0.08023640  0.14682446    -0.73350
O243        O  0.19750072  0.11268223  0.06066011    -0.74110
O244        O  0.27861292  0.11463627  0.19734794    -0.73500
O245        O  0.23940092  0.10043723  0.06052008    -0.73970
O246        O  0.19163699  0.03429370  0.11400654    -0.73870
O247        O  0.14850831  0.03178441  0.14905713    -0.73660
C248        C  0.15594353  0.13490859  0.15883999     0.78130
C249        C  0.28434521  0.18971961  0.11858734     0.78620
C250        C  0.20782982  0.10278096  0.25094520     0.77580
C251        C  0.28530833  0.09383945  0.18023808     0.77950
C252        C  0.21898224  0.10751420  0.04235422     0.79090
C253        C  0.16087539  0.01791867  0.12645738     0.78140
Zn254      Zn  0.25194319  0.10693835  0.36022131     1.49720
Zn255      Zn  0.17351869  0.08602781  0.37079169     1.49360
Zn256      Zn  0.21130647  0.07093446  0.43265120     1.49110
Zn257      Zn  0.23280050  0.14496843  0.42287580     1.49480
O258        O  0.21733309  0.10347050  0.39520714    -1.83130
O259        O  0.22897474  0.08917220  0.30726520    -0.73760
O260        O  0.14779491  0.03311021  0.36948289    -0.73580
O261        O  0.25563682  0.07590374  0.44722894    -0.73100
O262        O  0.18621091  0.10024997  0.31460767    -0.73780
O263        O  0.28259523  0.09102089  0.38953659    -0.73380
O264        O  0.18067803  0.02458415  0.41083328    -0.73960
O265        O  0.23955005  0.13512572  0.48068441    -0.73350
O266        O  0.14845377  0.10960569  0.39571301    -0.74110
O267        O  0.19638520  0.08107650  0.48205939    -0.73500
O268        O  0.19397197  0.15391294  0.42374795    -0.73970
O269        O  0.27248128  0.18469229  0.39116574    -0.73870
O270        O  0.28193819  0.15564691  0.34462151    -0.73660
C271        C  0.20768446  0.09709928  0.29313228     0.78130
C272        C  0.15668868  0.01336327  0.38551067     0.78620
C273        C  0.28140299  0.08292864  0.42611917     0.77580
C274        C  0.21859457  0.10805266  0.99961849     0.77950
C275        C  0.16254235  0.13843570  0.41398758     0.79090
C276        C  0.28723149  0.18379460  0.35905081     0.78140
Zn277      Zn  0.08627277  0.35152174  0.57529439     1.49720
Zn278      Zn  0.14351127  0.38840498  0.63822961     1.49360
Zn279      Zn  0.13907014  0.42530474  0.56702289     1.49110
Zn280      Zn  0.08618855  0.40876159  0.63093746     1.49480
O281        O  0.11250710  0.39229706  0.60440731    -1.83130
O282        O  0.08483803  0.31070677  0.60553299    -0.73760
O283        O  0.19016316  0.40525480  0.60852476    -0.73580
O284        O  0.11356788  0.41514222  0.51817646    -0.73100
O285        O  0.12450738  0.33950552  0.65108097    -0.73780
O286        O  0.10479246  0.36212170  0.51836330    -0.73380
O287        O  0.17923964  0.42156836  0.55143278    -0.73960
O288        O  0.11267048  0.46131071  0.63223029    -0.73350
O289        O  0.13840773  0.40441035  0.69258098    -0.74110
O290        O  0.15376153  0.47121044  0.58902184    -0.73500
O291        O  0.08468900  0.39413055  0.68661129    -0.73970
O292        O  0.03787011  0.38628958  0.60686801    -0.73870
O293        O  0.03915958  0.34485442  0.57216026    -0.73660
C294        C  0.10125334  0.31145766  0.63670145     0.78130
C295        C  0.19770862  0.41424258  0.57222239     0.78620
C296        C  0.10999902  0.38886384  0.00001762     0.77580
C297        C  0.14078725  0.48172721  0.61500617     0.77950
C298        C  0.10934261  0.39691701  0.70742372     0.79090
C299        C  0.02345263  0.35993178  0.58429469     0.78140
Zn300      Zn  0.11144200  0.35665672  0.81803051     1.49360
Zn301      Zn  0.09233149  0.41425646  0.82710243     1.49360
Zn302      Zn  0.07573469  0.36112396  0.89015656     1.49110
Zn303      Zn  0.14920279  0.41405797  0.88197687     1.49480
O304        O  0.10861982  0.38802442  0.85288279    -1.83130
O305        O  0.09615439  0.36224889  0.76390689    -0.73760
O306        O  0.03991201  0.38716482  0.82624552    -0.73580
O307        O  0.08035589  0.32164101  0.90481267    -0.73100
O308        O  0.10702628  0.41606356  0.77112974    -0.73780
O309        O  0.09479808  0.30977626  0.84660600    -0.73380
O310        O  0.03009071  0.34561795  0.86815224    -0.73960
O311        O  0.13817269  0.39564590  0.93878055    -0.73350
O312        O  0.11473326  0.46251784  0.85164437    -0.74110
O313        O  0.08486921  0.38611835  0.93951036    -0.73500
O314        O  0.15662111  0.46162255  0.88509879    -0.73970
O315        O  0.18936308  0.41322549  0.85242226    -0.73870
O316        O  0.16000946  0.37464347  0.80571590    -0.73660
C317        C  0.10394076  0.39142195  0.74967741     0.78130
C318        C  0.01965734  0.35866849  0.84267621     0.78620
C319        C  0.08707238  0.30286744  0.88330637     0.77580
C320        C  0.11108824  0.38991066  0.95739707     0.77950
C321        C  0.14135639  0.47718152  0.87358063     0.79090
C322        C  0.18814507  0.39643398  0.82114495     0.78140
Zn323      Zn  0.11587175  0.24782130  0.72232139     1.49720
Zn324      Zn  0.07475858  0.20658890  0.65239863     1.49360
Zn325      Zn  0.14879449  0.22576026  0.65812277     1.49110
Zn326      Zn  0.09191032  0.16980507  0.71554911     1.49480
O327        O  0.10875400  0.21194538  0.68796688    -1.83130
O328        O  0.10663638  0.28157461  0.69147972    -0.73760
O329        O  0.08140208  0.18854960  0.60280751    -0.73580
O330        O  0.19126680  0.26599052  0.68784319    -0.73100
O331        O  0.08072696  0.25187610  0.63724438    -0.73780
O332        O  0.16414479  0.27424457  0.73748645    -0.73380
O333        O  0.13634168  0.22959588  0.60010687    -0.73960
O334        O  0.11358485  0.14304375  0.69233343    -0.73350
O335        O  0.02970155  0.17654734  0.67655302    -0.74110
O336        O  0.15480005  0.18549439  0.65735351    -0.73500
O337        O  0.03913479  0.14423666  0.71782616    -0.73970
O338        O  0.10806719  0.18473270  0.77075647    -0.73870
O339        O  0.09806678  0.22825022  0.77592377    -0.73660
C340        C  0.09515131  0.27983877  0.65639916     0.78130
C341        C  0.10792887  0.20842660  0.58316641     0.78620
C342        C  0.19163912  0.27999353  0.72121860     0.77580
C343        C  0.13998160  0.15497709  0.67006860     0.77950
C344        C  0.01904915  0.15276462  0.70189853     0.79090
C345        C  0.10566775  0.20716941  0.79118215     0.78140
Zn346      Zn  0.09314815  0.16990409  0.96494950     1.49720
Zn347      Zn  0.11082677  0.24635059  0.96991006     1.49360
Zn348      Zn  0.14990084  0.22649751  0.90877850     1.49110
Zn349      Zn  0.07616125  0.20411108  0.89976695     1.49480
O350        O  0.10912736  0.21161878  0.93728316    -1.83130
O351        O  0.10889415  0.18590120  0.52069100    -0.73760
O352        O  0.15879396  0.27848317  0.98261647    -0.73580
O353        O  0.15961826  0.18811917  0.91045400    -0.73100
O354        O  0.09524255  0.22699335  0.52427564    -0.73780
O355        O  0.11614866  0.14392050  0.94106393    -0.73380
O356        O  0.18931676  0.26944206  0.93762176    -0.73960
O357        O  0.08435233  0.18457497  0.85294088    -0.73350
O358        O  0.09366827  0.27466497  0.93935224    -0.74110
O359        O  0.13716272  0.22967083  0.85078875    -0.73500
O360        O  0.08158854  0.24817532  0.88119691    -0.73970
O361        O  0.03076451  0.17528863  0.92364589    -0.73870
O362        O  0.04025134  0.14446769  0.96712687    -0.73660
C363        C  0.10447730  0.20749888  0.54044263     0.78130
C364        C  0.18729131  0.28528788  0.96821437     0.78620
C365        C  0.14438679  0.15714693  0.92181285     0.77580
C366        C  0.10960708  0.20704297  0.83357876     0.77950
C367        C  0.08716152  0.27365717  0.90227610     0.79090
C368        C  0.02018375  0.15263159  0.95034181     0.78140
Zn369      Zn  0.33262064  0.40789131  0.99525243     1.49720
Zn370      Zn  0.29743521  0.42637285  0.55879568     1.49360
Zn371      Zn  0.25691021  0.39155430  0.98628111     1.49110
Zn372      Zn  0.27386192  0.35119043  0.54739179     1.49480
O373        O  0.29012905  0.39294150  0.52104517    -1.83130
O374        O  0.35916023  0.45987792  0.99350368    -0.73760
O375        O  0.25309790  0.42185556  0.57442572    -0.73580
O376        O  0.27947180  0.40807745  0.93301457    -0.73100
O377        O  0.32954127  0.47250476  0.53632629    -0.73780
O378        O  0.31901323  0.39257352  0.93927872    -0.73380
O379        O  0.22704298  0.40795288  0.01616971    -0.73960
O380        O  0.23190068  0.31260484  0.51682483    -0.73350
O381        O  0.31207659  0.41548755  0.60768320    -0.74110
O382        O  0.22491875  0.34366341  0.97149336    -0.73500
O383        O  0.26841952  0.36159726  0.60545828    -0.73970
O384        O  0.31188109  0.34089340  0.54684471    -0.73870
O385        O  0.35772468  0.38528798  0.02001241    -0.73660
C386        C  0.35260356  0.48132779  0.50998382     0.78130
C387        C  0.22755209  0.41506113  0.55314029     0.78620
C388        C  0.29900474  0.39797753  0.91819451     0.77580
C389        C  0.21722341  0.31498278  0.48570175     0.77950
C390        C  0.28978511  0.38846627  0.62477775     0.79090
C391        C  0.34347880  0.35651596  0.53764622     0.78140
Zn392      Zn  0.27379851  0.41313787  0.74287978     1.49720
Zn393      Zn  0.25626859  0.35958951  0.80759421     1.49360
Zn394      Zn  0.29584229  0.36032123  0.73613852     1.49110
Zn395      Zn  0.33200070  0.41703075  0.79865855     1.49480
O396        O  0.28991476  0.38901365  0.77191587    -1.83130
O397        O  0.23129527  0.41031848  0.77133951    -0.73760
O398        O  0.22256658  0.31536446  0.77656293    -0.73580
O399        O  0.31060116  0.38352325  0.68558785    -0.73100
O400        O  0.22799385  0.37914512  0.82316706    -0.73780
O401        O  0.26823163  0.39520679  0.68578858    -0.73380
O402        O  0.25125522  0.31937402  0.72158391    -0.73960
O403        O  0.35963627  0.39309626  0.79936834    -0.73350
O404        O  0.27839736  0.36329011  0.86069390    -0.74110
O405        O  0.32792652  0.34816090  0.76012936    -0.73500
O406        O  0.31893913  0.41831656  0.85468790    -0.73970
O407        O  0.35641383  0.46484081  0.77543831    -0.73870
O408        O  0.31268566  0.46144202  0.74141487    -0.73660
C409        C  0.21849939  0.39707094  0.80497411     0.78130
C410        C  0.22368900  0.30547007  0.74113059     0.78620
C411        C  0.28920521  0.38874448  0.66748427     0.77580
C412        C  0.35218751  0.36415401  0.78468816     0.77950
C413        C  0.29880098  0.39280796  0.87573548     0.79090
C414        C  0.34351190  0.47827997  0.75365729     0.78140
Zn415      Zn  0.36482505  0.10933257  0.76476731     1.49720
Zn416      Zn  0.41965735  0.14342216  0.70069295     1.49360
Zn417      Zn  0.41942603  0.08744875  0.75788643     1.49110
Zn418      Zn  0.36471073  0.06934543  0.69412210     1.49480
O419        O  0.39376013  0.10331133  0.73010217    -1.83130
O420        O  0.38655457  0.15749171  0.78013091    -0.73760
O421        O  0.46703743  0.15148404  0.70062807    -0.73580
O422        O  0.41977324  0.10254393  0.81376298    -0.73100
O423        O  0.41821816  0.18424867  0.72780462    -0.73780
O424        O  0.36554393  0.09076487  0.81771911    -0.73380
O425        O  0.46831123  0.11039318  0.73515398    -0.73960
O426        O  0.34972336  0.02446750  0.71734937    -0.73350
O427        O  0.40332009  0.13127338  0.64321622    -0.74110
O428        O  0.39224273  0.03477316  0.75843855    -0.73500
O429        O  0.38885453  0.07636514  0.64443638    -0.73970
O430        O  0.32505418  0.07454194  0.67933493    -0.73870
O431        O  0.32113654  0.09918773  0.73454457    -0.73660
C432        C  0.40534507  0.18464906  0.76150831     0.78130
C433        C  0.48288036  0.13691545  0.71328579     0.78620
C434        C  0.39422121  0.09889485  0.83370775     0.77580
C435        C  0.36338173  0.01432046  0.74241345     0.77950
C436        C  0.39569864  0.10312939  0.62563722     0.79090
C437        C  0.31118686  0.08803789  0.69926165     0.78140
Zn438      Zn  0.36789235  0.06883507  0.94415568     1.49720
Zn439      Zn  0.42166287  0.09100935  0.50935966     1.49360
Zn440      Zn  0.42064623  0.14387521  0.95018864     1.49110
Zn441      Zn  0.36332008  0.10865656  0.51255902     1.49480
O442        O  0.39459992  0.10409194  0.97987376    -1.83130
O443        O  0.35475843  0.02394749  0.96936258    -0.73760
O444        O  0.47026086  0.11304187  0.48675888    -0.73580
O445        O  0.40270629  0.13036292  0.89319290    -0.73100
O446        O  0.39720673  0.03916405  0.51252810    -0.73780
O447        O  0.39423479  0.07743588  0.89571801    -0.73380
O448        O  0.46806054  0.15147640  0.94824888    -0.73960
O449        O  0.38312231  0.15727363  0.52688827    -0.73350
O450        O  0.42077273  0.10707621  0.56410155    -0.74110
O451        O  0.42126737  0.18507253  0.97973134    -0.73500
O452        O  0.36513442  0.09094253  0.56603476    -0.73970
O453        O  0.31830665  0.09360886  0.48145767    -0.73870
O454        O  0.32769663  0.07255641  0.92642212    -0.73660
C455        C  0.36957556  0.01655216  0.99615332     0.78130
C456        C  0.48424792  0.13778997  0.96243527     0.78620
C457        C  0.39757526  0.10269776  0.87621216     0.77580
C458        C  0.40578801  0.18496601  0.01169388     0.77950
C459        C  0.39385404  0.10073694  0.58305604     0.79090
C460        C  0.31051133  0.08285258  0.94565154     0.78140
Zn461      Zn  0.39204297  0.25029931  0.59762707     1.49720
Zn462      Zn  0.41454502  0.32790465  0.58756692     1.49360
Zn463      Zn  0.43038317  0.28909777  0.52519539     1.49110
Zn464      Zn  0.35558746  0.26863591  0.53523040     1.49480
O465        O  0.39725172  0.28443847  0.56224817    -1.83130
O466        O  0.41223322  0.27315700  0.64973218    -0.73760
O467        O  0.46749248  0.35353392  0.58841099    -0.73580
O468        O  0.42517604  0.24406863  0.51118109    -0.73100
O469        O  0.40015563  0.31517150  0.64391962    -0.73780
O470        O  0.40149247  0.21616165  0.56669541    -0.73380
O471        O  0.47637513  0.32027164  0.54715161    -0.73960
O472        O  0.36525443  0.26284525  0.97713279    -0.73350
O473        O  0.39092080  0.35267581  0.56334576    -0.74110
O474        O  0.42058270  0.30334686  0.97529296    -0.73500
O475        O  0.34633630  0.30691924  0.53595842    -0.73970
O476        O  0.31543334  0.22833714  0.56550390    -0.73870
O477        O  0.34404038  0.22300952  0.61512418    -0.73660
C478        C  0.40398549  0.29405922  0.66478124     0.78130
C479        C  0.48737060  0.34452270  0.57237748     0.78620
C480        C  0.41195419  0.21689807  0.53116542     0.77580
C481        C  0.39268440  0.28281542  0.95805883     0.77950
C482        C  0.36191435  0.33836426  0.54570210     0.79090
C483        C  0.31603961  0.21558174  0.59896086     0.78140
Zn484      Zn  0.42261248  0.32687832  0.78490837     1.49720
Zn485      Zn  0.41886842  0.26873788  0.84034458     1.49360
Zn486      Zn  0.36470989  0.28916143  0.84549681     1.49110
Zn487      Zn  0.36710992  0.25065582  0.77408939     1.49480
O488        O  0.39481046  0.28464078  0.81081081    -1.83130
O489        O  0.47020478  0.35117493  0.80893424    -0.73760
O490        O  0.40061528  0.26257552  0.89688451    -0.73580
O491        O  0.35276952  0.32159695  0.82180232    -0.73100
O492        O  0.46701198  0.30772729  0.84304249    -0.73780
O493        O  0.39870115  0.35446337  0.78485075    -0.73380
O494        O  0.38609449  0.30291569  0.89752444    -0.73960
O495        O  0.32367892  0.21444992  0.80428583    -0.73350
O496        O  0.41651546  0.22644826  0.81219633    -0.74110
O497        O  0.32424874  0.24368231  0.85756691    -0.73500
O498        O  0.38988968  0.22570667  0.75706181    -0.73970
O499        O  0.36939584  0.27285727  0.72186294    -0.73870
O500        O  0.42406150  0.31439572  0.72853894    -0.73660
C501        C  0.48367274  0.33852215  0.83105790     0.78130
C502        C  0.39272758  0.28242388  0.91536675     0.78620
C503        C  0.36939472  0.34658825  0.79854075     0.77580
C504        C  0.31244100  0.21566028  0.83885689     0.77950
C505        C  0.40594398  0.21510244  0.77715346     0.79090
C506        C  0.39875757  0.29384890  0.70717045     0.78140
Zn507      Zn  0.17354563  0.08005303  0.67347215     1.49720
Zn508      Zn  0.21193013  0.13537311  0.61171805     1.49360
Zn509      Zn  0.25134405  0.13553085  0.68318108     1.49110
Zn510      Zn  0.23183042  0.08164016  0.61728665     1.49480
O511        O  0.21664223  0.10663113  0.64747303    -1.83130
O512        O  0.14722030  0.10617212  0.67465825    -0.73760
O513        O  0.25690397  0.17570202  0.59884975    -0.73580
O514        O  0.22980306  0.13189814  0.73667877    -0.73100
O515        O  0.18042400  0.14873891  0.63422081    -0.73780
O516        O  0.18604830  0.07824309  0.72948726    -0.73380
O517        O  0.28547902  0.17988585  0.65373465    -0.73960
O518        O  0.27168455  0.08025083  0.64682706    -0.73350
O519        O  0.19750083  0.11268567  0.56066237    -0.74110
O520        O  0.27861790  0.11464353  0.69735586    -0.73500
O521        O  0.23939706  0.10043556  0.56052437    -0.73970
O522        O  0.19164763  0.03431820  0.61404944    -0.73870
O523        O  0.14851225  0.03180851  0.64908625    -0.73660
C524        C  0.15594499  0.13491901  0.65884320     0.78130
C525        C  0.28434766  0.18972494  0.61858941     0.78620
C526        C  0.20783556  0.10279081  0.75095487     0.77580
C527        C  0.28531437  0.09384876  0.68024276     0.77950
C528        C  0.21897878  0.10751202  0.54235681     0.79090
C529        C  0.16088582  0.01794309  0.62649821     0.78140
Zn530      Zn  0.25194488  0.10693751  0.86022427     1.49720
Zn531      Zn  0.17351484  0.08601325  0.87079966     1.49360
Zn532      Zn  0.21130835  0.07093090  0.93265715     1.49110
Zn533      Zn  0.23279965  0.14496580  0.92287368     1.49480
O534        O  0.21733185  0.10346420  0.89520871    -1.83130
O535        O  0.22898048  0.08917587  0.80726853    -0.73760
O536        O  0.14779787  0.03308979  0.86950428    -0.73580
O537        O  0.25564072  0.07590705  0.94723337    -0.73100
O538        O  0.18620666  0.10023822  0.81461582    -0.73780
O539        O  0.28259586  0.09101936  0.88953833    -0.73380
O540        O  0.18067951  0.02456924  0.91086232    -0.73960
O541        O  0.23955249  0.13512828  0.98068223    -0.73350
O542        O  0.14845134  0.10959652  0.89571906    -0.74110
O543        O  0.19638789  0.08107910  0.98205967    -0.73500
O544        O  0.19397115  0.15390951  0.92374418    -0.73970
O545        O  0.27247925  0.18469117  0.89116471    -0.73870
O546        O  0.28193958  0.15564617  0.84462402    -0.73660
C547        C  0.20768799  0.09710128  0.79313949     0.78130
C548        C  0.15668825  0.01334301  0.88554224     0.78620
C549        C  0.28140527  0.08292981  0.92612166     0.77580
C550        C  0.21859155  0.10804965  0.49961992     0.77950
C551        C  0.16254087  0.13843012  0.91398696     0.79090
C552        C  0.28723092  0.18379373  0.85905118     0.78140
Zn553      Zn  0.08624416  0.85146705  0.07532332     1.49720
Zn554      Zn  0.14350859  0.88838332  0.13823115     1.49360
Zn555      Zn  0.13903209  0.92524873  0.06699855     1.49110
Zn556      Zn  0.08618463  0.90873409  0.13093498     1.49480
O557        O  0.11249529  0.89225902  0.10440966    -1.83130
O558        O  0.08480394  0.81067148  0.10558929    -0.73760
O559        O  0.19016084  0.90524978  0.10852003    -0.73580
O560        O  0.11349527  0.91502338  0.01817094    -0.73100
O561        O  0.12451455  0.83948532  0.15109287    -0.73780
O562        O  0.10475201  0.86201586  0.01838592    -0.73380
O563        O  0.17921294  0.92152665  0.05141578    -0.73960
O564        O  0.11267172  0.96128251  0.13222234    -0.73350
O565        O  0.13840387  0.90439644  0.19257916    -0.74110
O566        O  0.15372226  0.97117793  0.08895722    -0.73500
O567        O  0.08468246  0.89410870  0.18660972    -0.73970
O568        O  0.03786911  0.88627281  0.10686505    -0.73870
O569        O  0.03913945  0.84481648  0.07218179    -0.73660
C570        C  0.10124209  0.81143403  0.13674004     0.78130
C571        C  0.19769770  0.91422621  0.07221313     0.78620
C572        C  0.11005785  0.88898247  0.50000957     0.77580
C573        C  0.14076980  0.98169953  0.11496514     0.77950
C574        C  0.10933916  0.89690381  0.20742284     0.79090
C575        C  0.02344379  0.85990929  0.08430180     0.78140
Zn576      Zn  0.11144209  0.85666510  0.31804404     1.49360
Zn577      Zn  0.09233375  0.91426749  0.32709374     1.49360
Zn578      Zn  0.07576054  0.86116655  0.39017753     1.49110
Zn579      Zn  0.14922990  0.91410715  0.38194246     1.49480
O580        O  0.10863181  0.88804736  0.35288132    -1.83130
O581        O  0.09615467  0.86224961  0.26391712    -0.73760
O582        O  0.03991605  0.88716588  0.32624145    -0.73580
O583        O  0.08039156  0.82168567  0.40485377    -0.73100
O584        O  0.10702779  0.91606620  0.27112195    -0.73780
O585        O  0.09478142  0.80978792  0.34663220    -0.73380
O586        O  0.03010411  0.84564100  0.36817783    -0.73960
O587        O  0.13822714  0.89576158  0.43876957    -0.73350
O588        O  0.11472363  0.96253153  0.35162927    -0.74110
O589        O  0.08491435  0.88621019  0.43950390    -0.73500
O590        O  0.15664883  0.96166283  0.38502875    -0.73970
O591        O  0.18938036  0.91325758  0.35239391    -0.73870
O592        O  0.16000870  0.87463551  0.30573053    -0.73660
C593        C  0.10394096  0.89141952  0.24967815     0.78130
C594        C  0.01966520  0.85867660  0.34268794     0.78620
C595        C  0.08707859  0.80289313  0.38333944     0.77580
C596        C  0.11114570  0.89003206  0.45738891     0.77950
C597        C  0.14136369  0.97720747  0.37353762     0.79090
C598        C  0.18815027  0.89643957  0.32113681     0.78140
Zn599      Zn  0.11587472  0.74780683  0.22233689     1.49720
Zn600      Zn  0.07475806  0.70657627  0.15241186     1.49360
Zn601      Zn  0.14879452  0.72575357  0.15812615     1.49110
Zn602      Zn  0.09191079  0.66979464  0.21555771     1.49480
O603        O  0.10875519  0.71193380  0.18797544    -1.83130
O604        O  0.10663430  0.78155903  0.19151623    -0.73760
O605        O  0.08139919  0.68855132  0.10280760    -0.73580
O606        O  0.19126705  0.76598736  0.18784461    -0.73100
O607        O  0.08072175  0.75185987  0.13728199    -0.73780
O608        O  0.16414773  0.77423038  0.23749995    -0.73380
O609        O  0.13634052  0.72959289  0.10010975    -0.73960
O610        O  0.11358539  0.64303433  0.19233601    -0.73350
O611        O  0.02970174  0.67653700  0.17655925    -0.74110
O612        O  0.15479989  0.68548586  0.15735516    -0.73500
O613        O  0.03913349  0.64422824  0.21783603    -0.73970
O614        O  0.10807075  0.68472457  0.27076594    -0.73870
O615        O  0.09806135  0.72823586  0.27592960    -0.73660
C616        C  0.09514484  0.77982086  0.15643886     0.78130
C617        C  0.10792694  0.70842787  0.08316756     0.78620
C618        C  0.19164135  0.77998641  0.22122381     0.77580
C619        C  0.13998134  0.65496779  0.17006939     0.77950
C620        C  0.01904843  0.65275600  0.20190600     0.79090
C621        C  0.10566743  0.70716021  0.29118954     0.78140
Zn622      Zn  0.09314699  0.66990573  0.46494787     1.49720
Zn623      Zn  0.11082729  0.74635351  0.46991735     1.49360
Zn624      Zn  0.14990022  0.72649939  0.40878234     1.49110
Zn625      Zn  0.07615954  0.70412394  0.39977410     1.49480
O626        O  0.10912563  0.71162312  0.43728518    -1.83130
O627        O  0.10889539  0.68590292  0.02069248    -0.73760
O628        O  0.15879487  0.77848187  0.48262233    -0.73580
O629        O  0.15962027  0.68812432  0.41046012    -0.73100
O630        O  0.09524212  0.72699401  0.02427266    -0.73780
O631        O  0.11614784  0.64392291  0.44106206    -0.73380
O632        O  0.18931630  0.76944427  0.43762210    -0.73960
O633        O  0.08434640  0.68458317  0.35294979    -0.73350
O634        O  0.09367041  0.77467728  0.43937671    -0.74110
O635        O  0.13716479  0.72966629  0.35079193    -0.73500
O636        O  0.08158707  0.74819554  0.38121668    -0.73970
O637        O  0.03076446  0.67529602  0.42365314    -0.73870
O638        O  0.04025057  0.64446791  0.46712467    -0.73660
C639        C  0.10447718  0.70750055  0.04044250     0.78130
C640        C  0.18729157  0.78528801  0.46821706     0.78620
C641        C  0.14438807  0.65715144  0.42181530     0.77580
C642        C  0.10960660  0.70703990  0.33358532     0.77950
C643        C  0.08716203  0.77367575  0.40230219     0.79090
C644        C  0.02018327  0.65263421  0.45034357     0.78140
Zn645      Zn  0.33261979  0.90789109  0.49525283     1.49720
Zn646      Zn  0.29743444  0.92637364  0.05879497     1.49360
Zn647      Zn  0.25690828  0.89155421  0.48628324     1.49110
Zn648      Zn  0.27386227  0.85119056  0.04739065     1.49480
O649        O  0.29013008  0.89294224  0.02104488    -1.83130
O650        O  0.35915981  0.95987769  0.49350440    -0.73760
O651        O  0.25309393  0.92185398  0.07442156    -0.73580
O652        O  0.27946960  0.90807667  0.43301551    -0.73100
O653        O  0.32954206  0.97250535  0.03632598    -0.73780
O654        O  0.31901256  0.89257455  0.43927898    -0.73380
O655        O  0.22704340  0.90795549  0.51617604    -0.73960
O656        O  0.23190018  0.81260467  0.01682357    -0.73350
O657        O  0.31207635  0.91548817  0.10768217    -0.74110
O658        O  0.22491729  0.84366333  0.47149586    -0.73500
O659        O  0.26842062  0.86159708  0.10545718    -0.73970
O660        O  0.31188148  0.84089362  0.04684369    -0.73870
O661        O  0.35772379  0.88528734  0.52001211    -0.73660
C662        C  0.35260434  0.98132817  0.00998347     0.78130
C663        C  0.22754802  0.91505631  0.05313389     0.78620
C664        C  0.29900353  0.89797801  0.41819506     0.77580
C665        C  0.21722344  0.81498267  0.98569991     0.77950
C666        C  0.28978622  0.88846611  0.12477655     0.79090
C667        C  0.34347938  0.85651636  0.03764602     0.78140
Zn668      Zn  0.27380123  0.91313718  0.24287700     1.49720
Zn669      Zn  0.25626960  0.85958739  0.30759209     1.49360
Zn670      Zn  0.29584435  0.86032087  0.23613703     1.49110
Zn671      Zn  0.33200174  0.91703037  0.29865866     1.49480
O672        O  0.28991633  0.88901267  0.27191467    -1.83130
O673        O  0.23130010  0.91032087  0.27133353    -0.73760
O674        O  0.22257082  0.81536006  0.27656473    -0.73580
O675        O  0.31060326  0.88352331  0.18558626    -0.73100
O676        O  0.22799001  0.87913894  0.32315625    -0.73780
O677        O  0.26823312  0.89520581  0.18578720    -0.73380
O678        O  0.25125670  0.81937306  0.22158237    -0.73960
O679        O  0.35963819  0.89309635  0.29936864    -0.73350
O680        O  0.27839547  0.86329077  0.36069455    -0.74110
O681        O  0.32792944  0.84816122  0.26012884    -0.73500
O682        O  0.31893945  0.91831633  0.35468823    -0.73970
O683        O  0.35641431  0.96484065  0.27543879    -0.73870
O684        O  0.31268725  0.96144084  0.24141203    -0.73660
C685        C  0.21850016  0.89706929  0.30496492     0.78130
C686        C  0.22369191  0.80546631  0.24113182     0.78620
C687        C  0.28920687  0.88874402  0.16748285     0.77580
C688        C  0.35219021  0.86415437  0.28468809     0.77950
C689        C  0.29879988  0.89280841  0.37573591     0.79090
C690        C  0.34351271  0.97827932  0.25365643     0.78140
Zn691      Zn  0.36482296  0.60933198  0.26476589     1.49720
Zn692      Zn  0.41965895  0.64342183  0.20069392     1.49360
Zn693      Zn  0.41942383  0.58744739  0.25788793     1.49110
Zn694      Zn  0.36471039  0.56934455  0.19412162     1.49480
O695        O  0.39375902  0.60331090  0.23010209    -1.83130
O696        O  0.38655234  0.65749135  0.28012904    -0.73760
O697        O  0.46703858  0.65147991  0.20063166    -0.73580
O698        O  0.41977170  0.60254325  0.31376341    -0.73100
O699        O  0.41822101  0.68424921  0.22780616    -0.73780
O700        O  0.36554270  0.59076523  0.31771885    -0.73380
O701        O  0.46830841  0.61038771  0.23515906    -0.73960
O702        O  0.34972409  0.52446675  0.21734846    -0.73350
O703        O  0.40332188  0.63127389  0.14321679    -0.74110
O704        O  0.39224170  0.53477277  0.25844047    -0.73500
O705        O  0.38885483  0.57636518  0.14443639    -0.73970
O706        O  0.32505192  0.57453729  0.17933302    -0.73870
O707        O  0.32113355  0.59918497  0.23454058    -0.73660
C708        C  0.40534580  0.68464916  0.26150860     0.78130
C709        C  0.48287954  0.63690958  0.21329109     0.78620
C710        C  0.39421980  0.59889471  0.33370781     0.77580
C711        C  0.36338187  0.51431987  0.24241351     0.77950
C712        C  0.39569951  0.60312972  0.12563754     0.79090
C713        C  0.31118320  0.58803246  0.19925836     0.78140
Zn714      Zn  0.36789127  0.56883469  0.44415558     1.49720
Zn715      Zn  0.42166351  0.59100982  0.00935994     1.49360
Zn716      Zn  0.42064529  0.64387485  0.45018868     1.49110
Zn717      Zn  0.36332133  0.60865681  0.01255964     1.49480
O718        O  0.39459894  0.60409157  0.47987365    -1.83130
O719        O  0.35475747  0.52394714  0.46936291    -0.73760
O720        O  0.47026133  0.61304214  0.98675904    -0.73580
O721        O  0.40270538  0.63036278  0.39319300    -0.73100
O722        O  0.39720744  0.53916447  0.01252815    -0.73780
O723        O  0.39423384  0.57743570  0.39571794    -0.73380
O724        O  0.46805907  0.65147602  0.44824954    -0.73960
O725        O  0.38312277  0.65727344  0.02688877    -0.73350
O726        O  0.42077342  0.60707678  0.06410176    -0.74110
O727        O  0.42126767  0.68507261  0.47973152    -0.73500
O728        O  0.36513506  0.59094263  0.06603521    -0.73970
O729        O  0.31830881  0.59360964  0.98145891    -0.73870
O730        O  0.32769500  0.57255558  0.42642141    -0.73660
C731        C  0.36957467  0.51655180  0.49615358     0.78130
C732        C  0.48424706  0.63779024  0.46243577     0.78620
C733        C  0.39757398  0.60269752  0.37621220     0.77580
C734        C  0.40578837  0.68496624  0.51169400     0.77950
C735        C  0.39385476  0.60073738  0.08305638     0.79090
C736        C  0.31050917  0.58285148  0.44565027     0.78140
Zn737      Zn  0.39204168  0.75029863  0.09762756     1.49720
Zn738      Zn  0.41454457  0.82790401  0.08756659     1.49360
Zn739      Zn  0.43037808  0.78909530  0.02519336     1.49110
Zn740      Zn  0.35558571  0.76863495  0.03523041     1.49480
O741        O  0.39724901  0.78443712  0.06224841    -1.83130
O742        O  0.41223325  0.77315736  0.14973250    -0.73760
O743        O  0.46749122  0.85352888  0.08841069    -0.73580
O744        O  0.42517070  0.74406692  0.01117821    -0.73100
O745        O  0.40015690  0.81517273  0.14392055    -0.73780
O746        O  0.40149301  0.71616201  0.06669542    -0.73380
O747        O  0.47636757  0.82026215  0.04715146    -0.73960
O748        O  0.36525556  0.76284558  0.47713362    -0.73350
O749        O  0.39092157  0.85267616  0.06334496    -0.74110
O750        O  0.42058460  0.80334576  0.47529368    -0.73500
O751        O  0.34633597  0.80691925  0.03595930    -0.73970
O752        O  0.31543184  0.72833521  0.06550435    -0.73870
O753        O  0.34403848  0.72300712  0.11512490    -0.73660
C754        C  0.40398720  0.79406065  0.16478216     0.78130
C755        C  0.48736525  0.84451171  0.07237898     0.78620
C756        C  0.41195251  0.71689761  0.03116440     0.77580
C757        C  0.39268578  0.78281505  0.45805979     0.77950
C758        C  0.36191470  0.83836451  0.04570213     0.79090
C759        C  0.31603770  0.71557873  0.09896085     0.78140
Zn760      Zn  0.42261719  0.82687885  0.28491174     1.49720
Zn761      Zn  0.41887391  0.76873942  0.34034813     1.49360
Zn762      Zn  0.36471227  0.78916168  0.34549758     1.49110
Zn763      Zn  0.36711234  0.75065726  0.27409109     1.49480
O764        O  0.39481463  0.78464162  0.31081322    -1.83130
O765        O  0.47020984  0.85117241  0.30894219    -0.73760
O766        O  0.40061612  0.76257460  0.39688589    -0.73580
O767        O  0.35277147  0.82159658  0.32180193    -0.73100
O768        O  0.46702095  0.80772881  0.34305548    -0.73780
O769        O  0.39870513  0.85446458  0.28485406    -0.73380
O770        O  0.38609622  0.80291560  0.39752543    -0.73960
O771        O  0.32368024  0.71445115  0.30428603    -0.73350
O772        O  0.41651908  0.72644942  0.31219680    -0.74110
O773        O  0.32425073  0.74368292  0.35756777    -0.73500
O774        O  0.38989073  0.72570699  0.25706371    -0.73970
O775        O  0.36939868  0.77285932  0.22186478    -0.73870
O776        O  0.42406498  0.81439648  0.22854051    -0.73660
C777        C  0.48367978  0.83852349  0.33106952     0.78130
C778        C  0.39272876  0.78242338  0.41536783     0.78620
C779        C  0.36939755  0.84658859  0.29854156     0.77580
C780        C  0.31244233  0.71566116  0.33885717     0.77950
C781        C  0.40594588  0.71510304  0.27715434     0.79090
C782        C  0.39876037  0.79385060  0.20717193     0.78140
Zn783      Zn  0.17353844  0.58003237  0.17345804     1.49720
Zn784      Zn  0.21192907  0.63536550  0.11171537     1.49360
Zn785      Zn  0.25133703  0.63552001  0.18317163     1.49110
Zn786      Zn  0.23182203  0.58162246  0.11727289     1.49480
O787        O  0.21663573  0.60661482  0.14746280    -1.83130
O788        O  0.14721471  0.60615698  0.17464633    -0.73760
O789        O  0.25690251  0.67569571  0.09884627    -0.73580
O790        O  0.22979371  0.63188823  0.23666618    -0.73100
O791        O  0.18042523  0.64873197  0.13422165    -0.73780
O792        O  0.18604531  0.57822858  0.22947897    -0.73380
O793        O  0.28547476  0.67987903  0.15373211    -0.73960
O794        O  0.27167585  0.58023640  0.14682446    -0.73350
O795        O  0.19750072  0.61268223  0.06066010    -0.74110
O796        O  0.27861292  0.61463626  0.19734794    -0.73500
O797        O  0.23940092  0.60043722  0.06052008    -0.73970
O798        O  0.19163699  0.53429370  0.11400653    -0.73870
O799        O  0.14850831  0.53178441  0.14905713    -0.73660
C800        C  0.15594353  0.63490858  0.15883999     0.78130
C801        C  0.28434521  0.68971961  0.11858734     0.78620
C802        C  0.20782983  0.60278096  0.25094520     0.77580
C803        C  0.28530833  0.59383944  0.18023808     0.77950
C804        C  0.21898224  0.60751420  0.04235422     0.79090
C805        C  0.16087539  0.51791866  0.12645738     0.78140
Zn806      Zn  0.25194319  0.60693835  0.36022131     1.49720
Zn807      Zn  0.17351869  0.58602781  0.37079169     1.49360
Zn808      Zn  0.21130647  0.57093446  0.43265120     1.49110
Zn809      Zn  0.23280050  0.64496843  0.42287580     1.49480
O810        O  0.21733310  0.60347051  0.39520714    -1.83130
O811        O  0.22897475  0.58917221  0.30726520    -0.73760
O812        O  0.14779491  0.53311021  0.36948289    -0.73580
O813        O  0.25563682  0.57590374  0.44722894    -0.73100
O814        O  0.18621091  0.60024996  0.31460767    -0.73780
O815        O  0.28259524  0.59102089  0.38953659    -0.73380
O816        O  0.18067804  0.52458415  0.41083328    -0.73960
O817        O  0.23955005  0.63512572  0.48068441    -0.73350
O818        O  0.14845378  0.60960569  0.39571301    -0.74110
O819        O  0.19638520  0.58107650  0.48205938    -0.73500
O820        O  0.19397197  0.65391294  0.42374795    -0.73970
O821        O  0.27248128  0.68469229  0.39116575    -0.73870
O822        O  0.28193820  0.65564691  0.34462151    -0.73660
C823        C  0.20768447  0.59709928  0.29313228     0.78130
C824        C  0.15668868  0.51336327  0.38551067     0.78620
C825        C  0.28140299  0.58292865  0.42611917     0.77580
C826        C  0.21859457  0.60805266  0.99961848     0.77950
C827        C  0.16254235  0.63843570  0.41398757     0.79090
C828        C  0.28723150  0.68379461  0.35905082     0.78140
Zn829      Zn  0.08627277  0.85152175  0.57529439     1.49720
Zn830      Zn  0.14351127  0.88840498  0.63822961     1.49360
Zn831      Zn  0.13907014  0.92530475  0.56702289     1.49110
Zn832      Zn  0.08618855  0.90876160  0.63093746     1.49480
O833        O  0.11250710  0.89229707  0.60440732    -1.83130
O834        O  0.08483804  0.81070677  0.60553299    -0.73760
O835        O  0.19016316  0.90525481  0.60852476    -0.73580
O836        O  0.11356788  0.91514223  0.51817646    -0.73100
O837        O  0.12450738  0.83950553  0.65108097    -0.73780
O838        O  0.10479246  0.86212171  0.51836330    -0.73380
O839        O  0.17923964  0.92156837  0.55143278    -0.73960
O840        O  0.11267048  0.96131072  0.63223029    -0.73350
O841        O  0.13840772  0.90441036  0.69258098    -0.74110
O842        O  0.15376152  0.97121045  0.58902184    -0.73500
O843        O  0.08468900  0.89413055  0.68661129    -0.73970
O844        O  0.03787011  0.88628958  0.60686801    -0.73870
O845        O  0.03915958  0.84485442  0.57216026    -0.73660
C846        C  0.10125335  0.81145766  0.63670145     0.78130
C847        C  0.19770862  0.91424259  0.57222240     0.78620
C848        C  0.10999902  0.88886385  0.00001762     0.77580
C849        C  0.14078724  0.98172722  0.61500617     0.77950
C850        C  0.10934261  0.89691702  0.70742372     0.79090
C851        C  0.02345264  0.85993179  0.58429469     0.78140
Zn852      Zn  0.11144200  0.85665673  0.81803051     1.49360
Zn853      Zn  0.09233150  0.91425647  0.82710243     1.49360
Zn854      Zn  0.07573470  0.86112397  0.89015656     1.49110
Zn855      Zn  0.14920280  0.91405797  0.88197687     1.49480
O856        O  0.10861983  0.88802443  0.85288279    -1.83130
O857        O  0.09615439  0.86224890  0.76390690    -0.73760
O858        O  0.03991201  0.88716483  0.82624552    -0.73580
O859        O  0.08035590  0.82164102  0.90481268    -0.73100
O860        O  0.10702628  0.91606357  0.77112974    -0.73780
O861        O  0.09479808  0.80977627  0.84660600    -0.73380
O862        O  0.03009072  0.84561796  0.86815225    -0.73960
O863        O  0.13817270  0.89564591  0.93878056    -0.73350
O864        O  0.11473327  0.96251785  0.85164437    -0.74110
O865        O  0.08486922  0.88611836  0.93951036    -0.73500
O866        O  0.15662111  0.96162255  0.88509879    -0.73970
O867        O  0.18936308  0.91322549  0.85242226    -0.73870
O868        O  0.16000946  0.87464348  0.80571590    -0.73660
C869        C  0.10394076  0.89142195  0.74967742     0.78130
C870        C  0.01965734  0.85866850  0.84267622     0.78620
C871        C  0.08707238  0.80286745  0.88330638     0.77580
C872        C  0.11108825  0.88991067  0.95739707     0.77950
C873        C  0.14135640  0.97718152  0.87358063     0.79090
C874        C  0.18814507  0.89643398  0.82114495     0.78140
Zn875      Zn  0.11587176  0.74782130  0.72232138     1.49720
Zn876      Zn  0.07475859  0.70658890  0.65239862     1.49360
Zn877      Zn  0.14879450  0.72576026  0.65812276     1.49110
Zn878      Zn  0.09191034  0.66980508  0.71554910     1.49480
O879        O  0.10875401  0.71194538  0.68796687    -1.83130
O880        O  0.10663639  0.78157462  0.69147971    -0.73760
O881        O  0.08140209  0.68854960  0.60280750    -0.73580
O882        O  0.19126681  0.76599052  0.68784319    -0.73100
O883        O  0.08072697  0.75187611  0.63724437    -0.73780
O884        O  0.16414480  0.77424458  0.73748644    -0.73380
O885        O  0.13634169  0.72959588  0.60010686    -0.73960
O886        O  0.11358486  0.64304375  0.69233343    -0.73350
O887        O  0.02970156  0.67654735  0.67655301    -0.74110
O888        O  0.15480006  0.68549439  0.65735351    -0.73500
O889        O  0.03913480  0.64423667  0.71782616    -0.73970
O890        O  0.10806721  0.68473271  0.77075647    -0.73870
O891        O  0.09806678  0.72825022  0.77592376    -0.73660
C892        C  0.09515131  0.77983877  0.65639915     0.78130
C893        C  0.10792888  0.70842660  0.58316640     0.78620
C894        C  0.19163913  0.77999353  0.72121860     0.77580
C895        C  0.13998161  0.65497709  0.67006860     0.77950
C896        C  0.01904916  0.65276462  0.70189853     0.79090
C897        C  0.10566776  0.70716942  0.79118214     0.78140
Zn898      Zn  0.09314815  0.66990409  0.96494949     1.49720
Zn899      Zn  0.11082677  0.74635059  0.96991006     1.49360
Zn900      Zn  0.14990084  0.72649751  0.90877849     1.49110
Zn901      Zn  0.07616125  0.70411109  0.89976695     1.49480
O902        O  0.10912736  0.71161878  0.93728315    -1.83130
O903        O  0.10889415  0.68590119  0.52069100    -0.73760
O904        O  0.15879396  0.77848317  0.98261648    -0.73580
O905        O  0.15961826  0.68811917  0.91045399    -0.73100
O906        O  0.09524255  0.72699335  0.52427564    -0.73780
O907        O  0.11614866  0.64392050  0.94106391    -0.73380
O908        O  0.18931676  0.76944206  0.93762175    -0.73960
O909        O  0.08435233  0.68457498  0.85294087    -0.73350
O910        O  0.09366828  0.77466497  0.93935225    -0.74110
O911        O  0.13716273  0.72967084  0.85078874    -0.73500
O912        O  0.08158855  0.74817533  0.88119691    -0.73970
O913        O  0.03076451  0.67528864  0.92364588    -0.73870
O914        O  0.04025135  0.64446769  0.96712686    -0.73660
C915        C  0.10447730  0.70749888  0.54044263     0.78130
C916        C  0.18729131  0.78528788  0.96821437     0.78620
C917        C  0.14438679  0.65714693  0.92181284     0.77580
C918        C  0.10960708  0.70704298  0.83357875     0.77950
C919        C  0.08716153  0.77365718  0.90227610     0.79090
C920        C  0.02018375  0.65263159  0.95034181     0.78140
Zn921      Zn  0.33262064  0.90789130  0.99525243     1.49720
Zn922      Zn  0.29743520  0.92637285  0.55879569     1.49360
Zn923      Zn  0.25691021  0.89155429  0.98628111     1.49110
Zn924      Zn  0.27386192  0.85119042  0.54739179     1.49480
O925        O  0.29012904  0.89294150  0.52104517    -1.83130
O926        O  0.35916022  0.95987791  0.99350367    -0.73760
O927        O  0.25309790  0.92185556  0.57442573    -0.73580
O928        O  0.27947180  0.90807744  0.93301458    -0.73100
O929        O  0.32954127  0.97250476  0.53632629    -0.73780
O930        O  0.31901322  0.89257351  0.93927872    -0.73380
O931        O  0.22704297  0.90795287  0.01616971    -0.73960
O932        O  0.23190068  0.81260484  0.51682483    -0.73350
O933        O  0.31207659  0.91548755  0.60768320    -0.74110
O934        O  0.22491875  0.84366340  0.97149336    -0.73500
O935        O  0.26841952  0.86159726  0.60545828    -0.73970
O936        O  0.31188109  0.84089340  0.54684471    -0.73870
O937        O  0.35772468  0.88528797  0.02001241    -0.73660
C938        C  0.35260356  0.98132779  0.50998381     0.78130
C939        C  0.22755209  0.91506114  0.55314029     0.78620
C940        C  0.29900474  0.89797752  0.91819451     0.77580
C941        C  0.21722340  0.81498279  0.48570175     0.77950
C942        C  0.28978511  0.88846626  0.62477775     0.79090
C943        C  0.34347880  0.85651596  0.53764622     0.78140
Zn944      Zn  0.27379851  0.91313786  0.74287978     1.49720
Zn945      Zn  0.25626859  0.85958951  0.80759421     1.49360
Zn946      Zn  0.29584230  0.86032123  0.73613852     1.49110
Zn947      Zn  0.33200070  0.91703075  0.79865855     1.49480
O948        O  0.28991476  0.88901365  0.77191587    -1.83130
O949        O  0.23129526  0.91031847  0.77133951    -0.73760
O950        O  0.22256658  0.81536446  0.77656292    -0.73580
O951        O  0.31060116  0.88352325  0.68558785    -0.73100
O952        O  0.22799385  0.87914512  0.82316706    -0.73780
O953        O  0.26823163  0.89520678  0.68578858    -0.73380
O954        O  0.25125522  0.81937402  0.72158391    -0.73960
O955        O  0.35963627  0.89309626  0.79936835    -0.73350
O956        O  0.27839736  0.86329011  0.86069390    -0.74110
O957        O  0.32792653  0.84816090  0.76012937    -0.73500
O958        O  0.31893913  0.91831656  0.85468790    -0.73970
O959        O  0.35641383  0.96484081  0.77543831    -0.73870
O960        O  0.31268565  0.96144201  0.74141487    -0.73660
C961        C  0.21849939  0.89707094  0.80497411     0.78130
C962        C  0.22368901  0.80547007  0.74113058     0.78620
C963        C  0.28920521  0.88874448  0.66748427     0.77580
C964        C  0.35218751  0.86415401  0.78468816     0.77950
C965        C  0.29880098  0.89280796  0.87573548     0.79090
C966        C  0.34351190  0.97827997  0.75365728     0.78140
Zn967      Zn  0.36482505  0.60933257  0.76476732     1.49720
Zn968      Zn  0.41965736  0.64342217  0.70069296     1.49360
Zn969      Zn  0.41942604  0.58744875  0.75788644     1.49110
Zn970      Zn  0.36471074  0.56934544  0.69412210     1.49480
O971        O  0.39376014  0.60331134  0.73010218    -1.83130
O972        O  0.38655457  0.65749172  0.78013091    -0.73760
O973        O  0.46703743  0.65148404  0.70062808    -0.73580
O974        O  0.41977325  0.60254393  0.81376298    -0.73100
O975        O  0.41821817  0.68424868  0.72780463    -0.73780
O976        O  0.36554393  0.59076487  0.81771911    -0.73380
O977        O  0.46831124  0.61039319  0.73515398    -0.73960
O978        O  0.34972337  0.52446751  0.71734937    -0.73350
O979        O  0.40332009  0.63127339  0.64321623    -0.74110
O980        O  0.39224274  0.53477317  0.75843855    -0.73500
O981        O  0.38885455  0.57636515  0.64443639    -0.73970
O982        O  0.32505419  0.57454195  0.67933493    -0.73870
O983        O  0.32113654  0.59918773  0.73454457    -0.73660
C984        C  0.40534507  0.68464906  0.76150831     0.78130
C985        C  0.48288036  0.63691545  0.71328579     0.78620
C986        C  0.39422121  0.59889486  0.83370776     0.77580
C987        C  0.36338174  0.51432047  0.74241345     0.77950
C988        C  0.39569866  0.60312940  0.62563723     0.79090
C989        C  0.31118687  0.58803789  0.69926164     0.78140
Zn990      Zn  0.36789236  0.56883508  0.94415568     1.49720
Zn991      Zn  0.42166287  0.59100936  0.50935967     1.49360
Zn992      Zn  0.42064624  0.64387522  0.95018864     1.49110
Zn993      Zn  0.36332008  0.60865656  0.51255903     1.49480
O994        O  0.39459993  0.60409195  0.97987377    -1.83130
O995        O  0.35475843  0.52394750  0.96936258    -0.73760
O996        O  0.47026087  0.61304187  0.48675888    -0.73580
O997        O  0.40270630  0.63036293  0.89319290    -0.73100
O998        O  0.39720673  0.53916405  0.51252810    -0.73780
O999        O  0.39423480  0.57743589  0.89571802    -0.73380
O1000       O  0.46806054  0.65147641  0.94824888    -0.73960
O1001       O  0.38312232  0.65727364  0.52688827    -0.73350
O1002       O  0.42077274  0.60707621  0.56410155    -0.74110
O1003       O  0.42126738  0.68507254  0.97973134    -0.73500
O1004       O  0.36513443  0.59094254  0.56603477    -0.73970
O1005       O  0.31830665  0.59360887  0.48145768    -0.73870
O1006       O  0.32769663  0.57255642  0.92642212    -0.73660
C1007       C  0.36957557  0.51655217  0.99615333     0.78130
C1008       C  0.48424792  0.63778998  0.96243527     0.78620
C1009       C  0.39757527  0.60269777  0.87621216     0.77580
C1010       C  0.40578801  0.68496602  0.01169387     0.77950
C1011       C  0.39385405  0.60073695  0.58305604     0.79090
C1012       C  0.31051133  0.58285258  0.94565154     0.78140
Zn1013     Zn  0.39204298  0.75029932  0.59762707     1.49720
Zn1014     Zn  0.41454503  0.82790466  0.58756693     1.49360
Zn1015     Zn  0.43038318  0.78909778  0.52519540     1.49110
Zn1016     Zn  0.35558746  0.76863591  0.53523040     1.49480
O1017       O  0.39725173  0.78443848  0.56224817    -1.83130
O1018       O  0.41223323  0.77315701  0.64973219    -0.73760
O1019       O  0.46749248  0.85353393  0.58841098    -0.73580
O1020       O  0.42517604  0.74406864  0.51118109    -0.73100
O1021       O  0.40015564  0.81517151  0.64391963    -0.73780
O1022       O  0.40149248  0.71616166  0.56669542    -0.73380
O1023       O  0.47637513  0.82027164  0.54715161    -0.73960
O1024       O  0.36525443  0.76284525  0.97713280    -0.73350
O1025       O  0.39092081  0.85267581  0.56334576    -0.74110
O1026       O  0.42058269  0.80334687  0.97529296    -0.73500
O1027       O  0.34633630  0.80691925  0.53595842    -0.73970
O1028       O  0.31543335  0.72833714  0.56550390    -0.73870
O1029       O  0.34404038  0.72300953  0.61512418    -0.73660
C1030       C  0.40398549  0.79405923  0.66478125     0.78130
C1031       C  0.48737061  0.84452271  0.57237748     0.78620
C1032       C  0.41195420  0.71689808  0.53116542     0.77580
C1033       C  0.39268440  0.78281542  0.95805884     0.77950
C1034       C  0.36191435  0.83836427  0.54570210     0.79090
C1035       C  0.31603962  0.71558174  0.59896087     0.78140
Zn1036     Zn  0.42261248  0.82687832  0.78490838     1.49720
Zn1037     Zn  0.41886842  0.76873788  0.84034459     1.49360
Zn1038     Zn  0.36470989  0.78916143  0.84549682     1.49110
Zn1039     Zn  0.36710992  0.75065583  0.77408939     1.49480
O1040       O  0.39481046  0.78464078  0.81081081    -1.83130
O1041       O  0.47020479  0.85117494  0.80893425    -0.73760
O1042       O  0.40061528  0.76257552  0.89688452    -0.73580
O1043       O  0.35276951  0.82159695  0.82180232    -0.73100
O1044       O  0.46701197  0.80772729  0.84304250    -0.73780
O1045       O  0.39870116  0.85446338  0.78485076    -0.73380
O1046       O  0.38609448  0.80291569  0.89752444    -0.73960
O1047       O  0.32367892  0.71444992  0.80428582    -0.73350
O1048       O  0.41651546  0.72644826  0.81219634    -0.74110
O1049       O  0.32424874  0.74368231  0.85756691    -0.73500
O1050       O  0.38988969  0.72570668  0.75706181    -0.73970
O1051       O  0.36939584  0.77285727  0.72186294    -0.73870
O1052       O  0.42406150  0.81439573  0.72853895    -0.73660
C1053       C  0.48367274  0.83852216  0.83105791     0.78130
C1054       C  0.39272757  0.78242388  0.91536676     0.78620
C1055       C  0.36939472  0.84658825  0.79854076     0.77580
C1056       C  0.31244100  0.71566027  0.83885688     0.77950
C1057       C  0.40594399  0.71510244  0.77715346     0.79090
C1058       C  0.39875758  0.79384891  0.70717046     0.78140
Zn1059     Zn  0.17354564  0.58005303  0.67347215     1.49720
Zn1060     Zn  0.21193014  0.63537311  0.61171805     1.49360
Zn1061     Zn  0.25134406  0.63553084  0.68318108     1.49110
Zn1062     Zn  0.23183043  0.58164016  0.61728665     1.49480
O1063       O  0.21664224  0.60663112  0.64747303    -1.83130
O1064       O  0.14722030  0.60617212  0.67465824    -0.73760
O1065       O  0.25690398  0.67570201  0.59884974    -0.73580
O1066       O  0.22980307  0.63189814  0.73667877    -0.73100
O1067       O  0.18042401  0.64873891  0.63422081    -0.73780
O1068       O  0.18604830  0.57824308  0.72948726    -0.73380
O1069       O  0.28547902  0.67988584  0.65373465    -0.73960
O1070       O  0.27168456  0.58025083  0.64682705    -0.73350
O1071       O  0.19750084  0.61268567  0.56066237    -0.74110
O1072       O  0.27861791  0.61464353  0.69735585    -0.73500
O1073       O  0.23939706  0.60043556  0.56052436    -0.73970
O1074       O  0.19164764  0.53431820  0.61404944    -0.73870
O1075       O  0.14851226  0.53180850  0.64908624    -0.73660
C1076       C  0.15594500  0.63491901  0.65884319     0.78130
C1077       C  0.28434767  0.68972494  0.61858941     0.78620
C1078       C  0.20783556  0.60279080  0.75095486     0.77580
C1079       C  0.28531438  0.59384876  0.68024275     0.77950
C1080       C  0.21897879  0.60751202  0.54235681     0.79090
C1081       C  0.16088583  0.51794309  0.62649820     0.78140
Zn1082     Zn  0.25194488  0.60693751  0.86022426     1.49720
Zn1083     Zn  0.17351483  0.58601325  0.87079965     1.49360
Zn1084     Zn  0.21130834  0.57093089  0.93265714     1.49110
Zn1085     Zn  0.23279965  0.64496580  0.92287368     1.49480
O1086       O  0.21733184  0.60346420  0.89520870    -1.83130
O1087       O  0.22898049  0.58917586  0.80726852    -0.73760
O1088       O  0.14779787  0.53308978  0.86950428    -0.73580
O1089       O  0.25564072  0.57590705  0.94723337    -0.73100
O1090       O  0.18620666  0.60023822  0.81461582    -0.73780
O1091       O  0.28259586  0.59101936  0.88953833    -0.73380
O1092       O  0.18067950  0.52456924  0.91086232    -0.73960
O1093       O  0.23955248  0.63512827  0.98068222    -0.73350
O1094       O  0.14845134  0.60959652  0.89571905    -0.74110
O1095       O  0.19638789  0.58107909  0.98205966    -0.73500
O1096       O  0.19397115  0.65390951  0.92374417    -0.73970
O1097       O  0.27247925  0.68469117  0.89116470    -0.73870
O1098       O  0.28193958  0.65564617  0.84462401    -0.73660
C1099       C  0.20768799  0.59710127  0.79313948     0.78130
C1100       C  0.15668824  0.51334300  0.88554224     0.78620
C1101       C  0.28140527  0.58292981  0.92612166     0.77580
C1102       C  0.21859155  0.60804965  0.49961992     0.77950
C1103       C  0.16254087  0.63843012  0.91398695     0.79090
C1104       C  0.28723092  0.68379373  0.85905117     0.78140
Zn1105     Zn  0.58624416  0.35146705  0.07532332     1.49720
Zn1106     Zn  0.64350859  0.38838333  0.13823115     1.49360
Zn1107     Zn  0.63903208  0.42524873  0.06699855     1.49110
Zn1108     Zn  0.58618463  0.40873409  0.13093498     1.49480
O1109       O  0.61249529  0.39225902  0.10440966    -1.83130
O1110       O  0.58480394  0.31067148  0.10558930    -0.73760
O1111       O  0.69016084  0.40524978  0.10852003    -0.73580
O1112       O  0.61349527  0.41502338  0.01817094    -0.73100
O1113       O  0.62451456  0.33948533  0.15109287    -0.73780
O1114       O  0.60475201  0.36201585  0.01838593    -0.73380
O1115       O  0.67921294  0.42152665  0.05141577    -0.73960
O1116       O  0.61267172  0.46128251  0.13222233    -0.73350
O1117       O  0.63840388  0.40439645  0.19257916    -0.74110
O1118       O  0.65372226  0.47117793  0.08895721    -0.73500
O1119       O  0.58468246  0.39410870  0.18660972    -0.73970
O1120       O  0.53786911  0.38627281  0.10686504    -0.73870
O1121       O  0.53913945  0.34481648  0.07218179    -0.73660
C1122       C  0.60124209  0.31143404  0.13674005     0.78130
C1123       C  0.69769770  0.41422622  0.07221313     0.78620
C1124       C  0.61005784  0.38898246  0.50000957     0.77580
C1125       C  0.64076980  0.48169953  0.11496513     0.77950
C1126       C  0.60933916  0.39690381  0.20742284     0.79090
C1127       C  0.52344379  0.35990929  0.08430179     0.78140
Zn1128     Zn  0.61144210  0.35666510  0.31804404     1.49360
Zn1129     Zn  0.59233374  0.41426749  0.32709374     1.49360
Zn1130     Zn  0.57576053  0.36116654  0.39017753     1.49110
Zn1131     Zn  0.64922989  0.41410715  0.38194246     1.49480
O1132       O  0.60863181  0.38804736  0.35288132    -1.83130
O1133       O  0.59615467  0.36224961  0.26391711    -0.73760
O1134       O  0.53991604  0.38716588  0.32624145    -0.73580
O1135       O  0.58039156  0.32168566  0.40485377    -0.73100
O1136       O  0.60702779  0.41606620  0.27112195    -0.73780
O1137       O  0.59478143  0.30978792  0.34663219    -0.73380
O1138       O  0.53010411  0.34564100  0.36817782    -0.73960
O1139       O  0.63822713  0.39576157  0.43876957    -0.73350
O1140       O  0.61472362  0.46253153  0.35162927    -0.74110
O1141       O  0.58491434  0.38621018  0.43950389    -0.73500
O1142       O  0.65664882  0.46166282  0.38502875    -0.73970
O1143       O  0.68938036  0.41325758  0.35239391    -0.73870
O1144       O  0.66000870  0.37463552  0.30573052    -0.73660
C1145       C  0.60394096  0.39141952  0.24967815     0.78130
C1146       C  0.51966520  0.35867660  0.34268794     0.78620
C1147       C  0.58707860  0.30289313  0.38333944     0.77580
C1148       C  0.61114569  0.39003205  0.45738891     0.77950
C1149       C  0.64136368  0.47720747  0.37353762     0.79090
C1150       C  0.68815027  0.39643958  0.32113681     0.78140
Zn1151     Zn  0.61587471  0.24780683  0.22233691     1.49720
Zn1152     Zn  0.57475805  0.20657628  0.15241187     1.49360
Zn1153     Zn  0.64879452  0.22575358  0.15812616     1.49110
Zn1154     Zn  0.59191079  0.16979464  0.21555771     1.49480
O1155       O  0.60875519  0.21193381  0.18797545    -1.83130
O1156       O  0.60663430  0.28155904  0.19151624    -0.73760
O1157       O  0.58139919  0.18855133  0.10280760    -0.73580
O1158       O  0.69126704  0.26598737  0.18784462    -0.73100
O1159       O  0.58072175  0.25185988  0.13728200    -0.73780
O1160       O  0.66414773  0.27423038  0.23749996    -0.73380
O1161       O  0.63634053  0.22959290  0.10010976    -0.73960
O1162       O  0.61358539  0.14303434  0.19233601    -0.73350
O1163       O  0.52970174  0.17653700  0.17655925    -0.74110
O1164       O  0.65479989  0.18548587  0.15735517    -0.73500
O1165       O  0.53913349  0.14422824  0.21783603    -0.73970
O1166       O  0.60807074  0.18472457  0.27076594    -0.73870
O1167       O  0.59806134  0.22823586  0.27592961    -0.73660
C1168       C  0.59514484  0.27982087  0.15643887     0.78130
C1169       C  0.60792694  0.20842788  0.08316757     0.78620
C1170       C  0.69164135  0.27998642  0.22122382     0.77580
C1171       C  0.63998134  0.15496779  0.17006939     0.77950
C1172       C  0.51904842  0.15275601  0.20190599     0.79090
C1173       C  0.60566742  0.20716021  0.29118954     0.78140
Zn1174     Zn  0.59314699  0.16990573  0.46494787     1.49720
Zn1175     Zn  0.61082730  0.24635351  0.46991735     1.49360
Zn1176     Zn  0.64990023  0.22649939  0.40878234     1.49110
Zn1177     Zn  0.57615954  0.20412393  0.39977410     1.49480
O1178       O  0.60912563  0.21162312  0.43728518    -1.83130
O1179       O  0.60889540  0.18590293  0.02069249    -0.73760
O1180       O  0.65879488  0.27848186  0.48262233    -0.73580
O1181       O  0.65962027  0.18812432  0.41046012    -0.73100
O1182       O  0.59524212  0.22699402  0.02427267    -0.73780
O1183       O  0.61614784  0.14392291  0.44106206    -0.73380
O1184       O  0.68931630  0.26944427  0.43762210    -0.73960
O1185       O  0.58434640  0.18458317  0.35294980    -0.73350
O1186       O  0.59367042  0.27467728  0.43937671    -0.74110
O1187       O  0.63716479  0.22966629  0.35079193    -0.73500
O1188       O  0.58158707  0.24819554  0.38121668    -0.73970
O1189       O  0.53076446  0.17529602  0.42365315    -0.73870
O1190       O  0.54025057  0.14446791  0.46712468    -0.73660
C1191       C  0.60447718  0.20750056  0.04044251     0.78130
C1192       C  0.68729157  0.28528801  0.46821706     0.78620
C1193       C  0.64438807  0.15715144  0.42181531     0.77580
C1194       C  0.60960660  0.20703990  0.33358532     0.77950
C1195       C  0.58716203  0.27367576  0.40230219     0.79090
C1196       C  0.52018327  0.15263420  0.45034357     0.78140
Zn1197     Zn  0.83261979  0.40789109  0.49525284     1.49720
Zn1198     Zn  0.79743445  0.42637365  0.05879497     1.49360
Zn1199     Zn  0.75690828  0.39155421  0.48628324     1.49110
Zn1200     Zn  0.77386228  0.35119057  0.04739065     1.49480
O1201       O  0.79013008  0.39294225  0.02104488    -1.83130
O1202       O  0.85915981  0.45987770  0.49350441    -0.73760
O1203       O  0.75309394  0.42185399  0.07442156    -0.73580
O1204       O  0.77946960  0.40807668  0.43301551    -0.73100
O1205       O  0.82954207  0.47250536  0.03632598    -0.73780
O1206       O  0.81901257  0.39257456  0.43927898    -0.73380
O1207       O  0.72704339  0.40795548  0.51617603    -0.73960
O1208       O  0.73190018  0.31260468  0.01682356    -0.73350
O1209       O  0.81207635  0.41548817  0.10768217    -0.74110
O1210       O  0.72491730  0.34366333  0.47149585    -0.73500
O1211       O  0.76842063  0.36159708  0.10545717    -0.73970
O1212       O  0.81188149  0.34089363  0.04684368    -0.73870
O1213       O  0.85772379  0.38528735  0.52001211    -0.73660
C1214       C  0.85260435  0.48132818  0.00998347     0.78130
C1215       C  0.72754803  0.41505632  0.05313389     0.78620
C1216       C  0.79900354  0.39797802  0.41819507     0.77580
C1217       C  0.71722345  0.31498268  0.98569991     0.77950
C1218       C  0.78978622  0.38846612  0.12477654     0.79090
C1219       C  0.84347938  0.35651636  0.03764601     0.78140
Zn1220     Zn  0.77380124  0.41313719  0.24287699     1.49720
Zn1221     Zn  0.75626960  0.35958740  0.30759209     1.49360
Zn1222     Zn  0.79584434  0.36032088  0.23613703     1.49110
Zn1223     Zn  0.83200174  0.41703037  0.29865866     1.49480
O1224       O  0.78991633  0.38901268  0.27191467    -1.83130
O1225       O  0.73130009  0.41032088  0.27133353    -0.73760
O1226       O  0.72257082  0.31536008  0.27656474    -0.73580
O1227       O  0.81060326  0.38352331  0.18558626    -0.73100
O1228       O  0.72799002  0.37913896  0.32315626    -0.73780
O1229       O  0.76823313  0.39520582  0.18578719    -0.73380
O1230       O  0.75125670  0.31937306  0.22158238    -0.73960
O1231       O  0.85963819  0.39309636  0.29936863    -0.73350
O1232       O  0.77839547  0.36329078  0.36069456    -0.74110
O1233       O  0.82792944  0.34816123  0.26012885    -0.73500
O1234       O  0.81893946  0.41831634  0.35468823    -0.73970
O1235       O  0.85641431  0.46484066  0.27543879    -0.73870
O1236       O  0.81268725  0.46144085  0.24141203    -0.73660
C1237       C  0.71850017  0.39706930  0.30496492     0.78130
C1238       C  0.72369191  0.30546632  0.24113183     0.78620
C1239       C  0.78920687  0.38874402  0.16748284     0.77580
C1240       C  0.85219021  0.36415438  0.28468809     0.77950
C1241       C  0.79879988  0.39280842  0.37573591     0.79090
C1242       C  0.84351271  0.47827933  0.25365643     0.78140
Zn1243     Zn  0.86482296  0.10933199  0.26476589     1.49720
Zn1244     Zn  0.91965894  0.14342183  0.20069391     1.49360
Zn1245     Zn  0.91942383  0.08744739  0.25788792     1.49110
Zn1246     Zn  0.86471038  0.06934455  0.19412163     1.49480
O1247       O  0.89375902  0.10331090  0.23010208    -1.83130
O1248       O  0.88655235  0.15749135  0.28012904    -0.73760
O1249       O  0.96703857  0.15147991  0.20063166    -0.73580
O1250       O  0.91977170  0.10254325  0.31376340    -0.73100
O1251       O  0.91822100  0.18424920  0.22780615    -0.73780
O1252       O  0.86554270  0.09076523  0.31771885    -0.73380
O1253       O  0.96830841  0.11038771  0.23515906    -0.73960
O1254       O  0.84972408  0.02446674  0.21734847    -0.73350
O1255       O  0.90332187  0.13127388  0.14321678    -0.74110
O1256       O  0.89224170  0.03477278  0.25844047    -0.73500
O1257       O  0.88885481  0.07636517  0.14443639    -0.73970
O1258       O  0.82505191  0.07453729  0.17933303    -0.73870
O1259       O  0.82113355  0.09918499  0.23454059    -0.73660
C1260       C  0.90534580  0.18464917  0.26150859     0.78130
C1261       C  0.98287954  0.13690958  0.21329109     0.78620
C1262       C  0.89421980  0.09889471  0.33370781     0.77580
C1263       C  0.86338187  0.01431987  0.24241351     0.77950
C1264       C  0.89569949  0.10312970  0.12563754     0.79090
C1265       C  0.81118320  0.08803247  0.19925837     0.78140
Zn1266     Zn  0.86789126  0.06883469  0.44415557     1.49720
Zn1267     Zn  0.92166351  0.09100981  0.00935994     1.49360
Zn1268     Zn  0.92064528  0.14387485  0.45018868     1.49110
Zn1269     Zn  0.86332132  0.10865680  0.01255963     1.49480
O1270       O  0.89459894  0.10409156  0.47987365    -1.83130
O1271       O  0.85475746  0.02394714  0.46936291    -0.73760
O1272       O  0.97026133  0.11304213  0.98675904    -0.73580
O1273       O  0.90270538  0.13036277  0.39319300    -0.73100
O1274       O  0.89720744  0.03916446  0.01252815    -0.73780
O1275       O  0.89423384  0.07743570  0.39571794    -0.73380
O1276       O  0.96805907  0.15147601  0.44824955    -0.73960
O1277       O  0.88312276  0.15727342  0.02688878    -0.73350
O1278       O  0.92077341  0.10707676  0.06410175    -0.74110
O1279       O  0.92126767  0.18507261  0.47973152    -0.73500
O1280       O  0.86513505  0.09094261  0.06603520    -0.73970
O1281       O  0.81830880  0.09360963  0.98145891    -0.73870
O1282       O  0.82769500  0.07255557  0.42642140    -0.73660
C1283       C  0.86957466  0.01655179  0.49615358     0.78130
C1284       C  0.98424705  0.13779024  0.46243577     0.78620
C1285       C  0.89757397  0.10269752  0.37621219     0.77580
C1286       C  0.90578836  0.18496623  0.51169400     0.77950
C1287       C  0.89385475  0.10073736  0.08305637     0.79090
C1288       C  0.81050917  0.08285148  0.44565027     0.78140
Zn1289     Zn  0.89204167  0.25029862  0.09762756     1.49720
Zn1290     Zn  0.91454457  0.32790401  0.08756658     1.49360
Zn1291     Zn  0.93037808  0.28909529  0.02519336     1.49110
Zn1292     Zn  0.85558571  0.26863495  0.03523040     1.49480
O1293       O  0.89724900  0.28443712  0.06224840    -1.83130
O1294       O  0.91223323  0.27315735  0.14973249    -0.73760
O1295       O  0.96749122  0.35352888  0.08841068    -0.73580
O1296       O  0.92517069  0.24406690  0.01117821    -0.73100
O1297       O  0.90015690  0.31517273  0.14392054    -0.73780
O1298       O  0.90149300  0.21616200  0.06669542    -0.73380
O1299       O  0.97636757  0.32026214  0.04715145    -0.73960
O1300       O  0.86525556  0.26284558  0.47713362    -0.73350
O1301       O  0.89092158  0.35267616  0.06334495    -0.74110
O1302       O  0.92058459  0.30334575  0.47529367    -0.73500
O1303       O  0.84633597  0.30691925  0.03595929    -0.73970
O1304       O  0.81543183  0.22833521  0.06550434    -0.73870
O1305       O  0.84403847  0.22300712  0.11512489    -0.73660
C1306       C  0.90398719  0.29406065  0.16478215     0.78130
C1307       C  0.98736525  0.34451170  0.07237897     0.78620
C1308       C  0.91195251  0.21689759  0.03116440     0.77580
C1309       C  0.89268577  0.28281504  0.45805979     0.77950
C1310       C  0.86191470  0.33836451  0.04570212     0.79090
C1311       C  0.81603770  0.21557874  0.09896084     0.78140
Zn1312     Zn  0.92261719  0.32687885  0.28491174     1.49720
Zn1313     Zn  0.91887390  0.26873942  0.34034813     1.49360
Zn1314     Zn  0.86471226  0.28916169  0.34549757     1.49110
Zn1315     Zn  0.86711234  0.25065726  0.27409108     1.49480
O1316       O  0.89481463  0.28464162  0.31081322    -1.83130
O1317       O  0.97020983  0.35117241  0.30894219    -0.73760
O1318       O  0.90061611  0.26257459  0.39688589    -0.73580
O1319       O  0.85277147  0.32159658  0.32180193    -0.73100
O1320       O  0.96702095  0.30772881  0.34305548    -0.73780
O1321       O  0.89870513  0.35446459  0.28485406    -0.73380
O1322       O  0.88609621  0.30291560  0.39752543    -0.73960
O1323       O  0.82368024  0.21445115  0.30428603    -0.73350
O1324       O  0.91651908  0.22644942  0.31219679    -0.74110
O1325       O  0.82425072  0.24368292  0.35756776    -0.73500
O1326       O  0.88989073  0.22570699  0.25706370    -0.73970
O1327       O  0.86939867  0.27285932  0.22186477    -0.73870
O1328       O  0.92406497  0.31439648  0.22854051    -0.73660
C1329       C  0.98367977  0.33852349  0.33106952     0.78130
C1330       C  0.89272875  0.28242337  0.41536783     0.78620
C1331       C  0.86939755  0.34658859  0.29854156     0.77580
C1332       C  0.81244232  0.21566116  0.33885716     0.77950
C1333       C  0.90594587  0.21510304  0.27715433     0.79090
C1334       C  0.89876036  0.29385060  0.20717192     0.78140
Zn1335     Zn  0.67353844  0.08003238  0.17345804     1.49720
Zn1336     Zn  0.71192906  0.13536550  0.11171537     1.49360
Zn1337     Zn  0.75133703  0.13552002  0.18317163     1.49110
Zn1338     Zn  0.73182203  0.08162247  0.11727290     1.49480
O1339       O  0.71663573  0.10661483  0.14746280    -1.83130
O1340       O  0.64721470  0.10615699  0.17464633    -0.73760
O1341       O  0.75690250  0.17569571  0.09884627    -0.73580
O1342       O  0.72979370  0.13188824  0.23666618    -0.73100
O1343       O  0.68042522  0.14873198  0.13422164    -0.73780
O1344       O  0.68604531  0.07822859  0.22947897    -0.73380
O1345       O  0.78547475  0.17987904  0.15373211    -0.73960
O1346       O  0.77167584  0.08023641  0.14682447    -0.73350
O1347       O  0.69750071  0.11268223  0.06066010    -0.74110
O1348       O  0.77861292  0.11463628  0.19734794    -0.73500
O1349       O  0.73940092  0.10043723  0.06052008    -0.73970
O1350       O  0.69163699  0.03429370  0.11400654    -0.73870
O1351       O  0.64850831  0.03178442  0.14905713    -0.73660
C1352       C  0.65594353  0.13490859  0.15883999     0.78130
C1353       C  0.78434521  0.18971961  0.11858734     0.78620
C1354       C  0.70782982  0.10278096  0.25094520     0.77580
C1355       C  0.78530833  0.09383946  0.18023808     0.77950
C1356       C  0.71898224  0.10751420  0.04235422     0.79090
C1357       C  0.66087539  0.01791867  0.12645739     0.78140
Zn1358     Zn  0.75194319  0.10693835  0.36022131     1.49720
Zn1359     Zn  0.67351869  0.08602781  0.37079169     1.49360
Zn1360     Zn  0.71130647  0.07093447  0.43265120     1.49110
Zn1361     Zn  0.73280050  0.14496843  0.42287580     1.49480
O1362       O  0.71733309  0.10347051  0.39520714    -1.83130
O1363       O  0.72897474  0.08917221  0.30726520    -0.73760
O1364       O  0.64779491  0.03311021  0.36948289    -0.73580
O1365       O  0.75563682  0.07590375  0.44722894    -0.73100
O1366       O  0.68621091  0.10024997  0.31460767    -0.73780
O1367       O  0.78259523  0.09102089  0.38953659    -0.73380
O1368       O  0.68067804  0.02458415  0.41083328    -0.73960
O1369       O  0.73955005  0.13512572  0.48068441    -0.73350
O1370       O  0.64845377  0.10960569  0.39571302    -0.74110
O1371       O  0.69638520  0.08107650  0.48205938    -0.73500
O1372       O  0.69397197  0.15391294  0.42374795    -0.73970
O1373       O  0.77248128  0.18469230  0.39116574    -0.73870
O1374       O  0.78193819  0.15564691  0.34462151    -0.73660
C1375       C  0.70768446  0.09709928  0.29313228     0.78130
C1376       C  0.65668868  0.01336328  0.38551067     0.78620
C1377       C  0.78140299  0.08292865  0.42611917     0.77580
C1378       C  0.71859456  0.10805266  0.99961849     0.77950
C1379       C  0.66254235  0.13843570  0.41398758     0.79090
C1380       C  0.78723150  0.18379461  0.35905081     0.78140
Zn1381     Zn  0.58627277  0.35152174  0.57529439     1.49720
Zn1382     Zn  0.64351127  0.38840498  0.63822961     1.49360
Zn1383     Zn  0.63907013  0.42530474  0.56702289     1.49110
Zn1384     Zn  0.58618854  0.40876159  0.63093746     1.49480
O1385       O  0.61250709  0.39229706  0.60440731    -1.83130
O1386       O  0.58483803  0.31070677  0.60553299    -0.73760
O1387       O  0.69016315  0.40525481  0.60852476    -0.73580
O1388       O  0.61356787  0.41514222  0.51817646    -0.73100
O1389       O  0.62450738  0.33950553  0.65108097    -0.73780
O1390       O  0.60479245  0.36212170  0.51836330    -0.73380
O1391       O  0.67923963  0.42156836  0.55143278    -0.73960
O1392       O  0.61267048  0.46131071  0.63223029    -0.73350
O1393       O  0.63840772  0.40441036  0.69258098    -0.74110
O1394       O  0.65376152  0.47121044  0.58902184    -0.73500
O1395       O  0.58468899  0.39413055  0.68661129    -0.73970
O1396       O  0.53787010  0.38628958  0.60686801    -0.73870
O1397       O  0.53915958  0.34485441  0.57216026    -0.73660
C1398       C  0.60125334  0.31145766  0.63670145     0.78130
C1399       C  0.69770861  0.41424258  0.57222239     0.78620
C1400       C  0.60999902  0.38886385  0.00001762     0.77580
C1401       C  0.64078724  0.48172721  0.61500617     0.77950
C1402       C  0.60934261  0.39691702  0.70742372     0.79090
C1403       C  0.52345263  0.35993178  0.58429469     0.78140
Zn1404     Zn  0.61144199  0.35665672  0.81803051     1.49360
Zn1405     Zn  0.59233149  0.41425646  0.82710243     1.49360
Zn1406     Zn  0.57573469  0.36112396  0.89015656     1.49110
Zn1407     Zn  0.64920279  0.41405797  0.88197687     1.49480
O1408       O  0.60861982  0.38802442  0.85288279    -1.83130
O1409       O  0.59615438  0.36224890  0.76390689    -0.73760
O1410       O  0.53991201  0.38716482  0.82624552    -0.73580
O1411       O  0.58035589  0.32164101  0.90481268    -0.73100
O1412       O  0.60702628  0.41606356  0.77112974    -0.73780
O1413       O  0.59479807  0.30977626  0.84660600    -0.73380
O1414       O  0.53009071  0.34561796  0.86815224    -0.73960
O1415       O  0.63817269  0.39564590  0.93878055    -0.73350
O1416       O  0.61473327  0.46251784  0.85164437    -0.74110
O1417       O  0.58486921  0.38611835  0.93951036    -0.73500
O1418       O  0.65662111  0.46162255  0.88509879    -0.73970
O1419       O  0.68936308  0.41322549  0.85242226    -0.73870
O1420       O  0.66000946  0.37464347  0.80571590    -0.73660
C1421       C  0.60394076  0.39142195  0.74967742     0.78130
C1422       C  0.51965734  0.35866850  0.84267622     0.78620
C1423       C  0.58707237  0.30286744  0.88330637     0.77580
C1424       C  0.61108824  0.38991066  0.95739707     0.77950
C1425       C  0.64135639  0.47718152  0.87358063     0.79090
C1426       C  0.68814506  0.39643398  0.82114495     0.78140
Zn1427     Zn  0.61587175  0.24782130  0.72232139     1.49720
Zn1428     Zn  0.57475858  0.20658890  0.65239863     1.49360
Zn1429     Zn  0.64879449  0.22576026  0.65812277     1.49110
Zn1430     Zn  0.59191033  0.16980507  0.71554911     1.49480
O1431       O  0.60875400  0.21194538  0.68796688    -1.83130
O1432       O  0.60663638  0.28157462  0.69147972    -0.73760
O1433       O  0.58140209  0.18854960  0.60280751    -0.73580
O1434       O  0.69126680  0.26599052  0.68784319    -0.73100
O1435       O  0.58072696  0.25187611  0.63724438    -0.73780
O1436       O  0.66414480  0.27424458  0.73748645    -0.73380
O1437       O  0.63634169  0.22959588  0.60010687    -0.73960
O1438       O  0.61358485  0.14304375  0.69233343    -0.73350
O1439       O  0.52970155  0.17654735  0.67655302    -0.74110
O1440       O  0.65480005  0.18549439  0.65735351    -0.73500
O1441       O  0.53913479  0.14423667  0.71782616    -0.73970
O1442       O  0.60806719  0.18473271  0.77075647    -0.73870
O1443       O  0.59806678  0.22825022  0.77592377    -0.73660
C1444       C  0.59515131  0.27983877  0.65639916     0.78130
C1445       C  0.60792887  0.20842660  0.58316641     0.78620
C1446       C  0.69163912  0.27999353  0.72121860     0.77580
C1447       C  0.63998161  0.15497709  0.67006860     0.77950
C1448       C  0.51904915  0.15276462  0.70189853     0.79090
C1449       C  0.60566775  0.20716942  0.79118215     0.78140
Zn1450     Zn  0.59314815  0.16990409  0.96494951     1.49720
Zn1451     Zn  0.61082677  0.24635059  0.96991006     1.49360
Zn1452     Zn  0.64990084  0.22649752  0.90877849     1.49110
Zn1453     Zn  0.57616125  0.20411108  0.89976695     1.49480
O1454       O  0.60912736  0.21161878  0.93728316    -1.83130
O1455       O  0.60889415  0.18590119  0.52069100    -0.73760
O1456       O  0.65879396  0.27848318  0.98261647    -0.73580
O1457       O  0.65961826  0.18811917  0.91045399    -0.73100
O1458       O  0.59524255  0.22699335  0.52427564    -0.73780
O1459       O  0.61614866  0.14392051  0.94106393    -0.73380
O1460       O  0.68931676  0.26944207  0.93762176    -0.73960
O1461       O  0.58435233  0.18457497  0.85294088    -0.73350
O1462       O  0.59366827  0.27466497  0.93935224    -0.74110
O1463       O  0.63716272  0.22967084  0.85078875    -0.73500
O1464       O  0.58158854  0.24817532  0.88119691    -0.73970
O1465       O  0.53076451  0.17528864  0.92364589    -0.73870
O1466       O  0.54025135  0.14446770  0.96712687    -0.73660
C1467       C  0.60447730  0.20749888  0.54044263     0.78130
C1468       C  0.68729131  0.28528789  0.96821437     0.78620
C1469       C  0.64438679  0.15714693  0.92181285     0.77580
C1470       C  0.60960708  0.20704298  0.83357876     0.77950
C1471       C  0.58716152  0.27365718  0.90227610     0.79090
C1472       C  0.52018375  0.15263159  0.95034181     0.78140
Zn1473     Zn  0.83262064  0.40789131  0.99525243     1.49720
Zn1474     Zn  0.79743520  0.42637285  0.55879568     1.49360
Zn1475     Zn  0.75691022  0.39155430  0.98628111     1.49110
Zn1476     Zn  0.77386192  0.35119043  0.54739180     1.49480
O1477       O  0.79012904  0.39294150  0.52104517    -1.83130
O1478       O  0.85916023  0.45987793  0.99350368    -0.73760
O1479       O  0.75309790  0.42185556  0.57442572    -0.73580
O1480       O  0.77947181  0.40807745  0.93301457    -0.73100
O1481       O  0.82954126  0.47250476  0.53632629    -0.73780
O1482       O  0.81901323  0.39257353  0.93927872    -0.73380
O1483       O  0.72704298  0.40795288  0.01616971    -0.73960
O1484       O  0.73190068  0.31260484  0.51682483    -0.73350
O1485       O  0.81207658  0.41548756  0.60768320    -0.74110
O1486       O  0.72491875  0.34366341  0.97149336    -0.73500
O1487       O  0.76841952  0.36159726  0.60545829    -0.73970
O1488       O  0.81188109  0.34089340  0.54684471    -0.73870
O1489       O  0.85772468  0.38528798  0.02001241    -0.73660
C1490       C  0.85260355  0.48132780  0.50998382     0.78130
C1491       C  0.72755208  0.41506113  0.55314029     0.78620
C1492       C  0.79900475  0.39797753  0.91819451     0.77580
C1493       C  0.71722340  0.31498278  0.48570175     0.77950
C1494       C  0.78978511  0.38846627  0.62477775     0.79090
C1495       C  0.84347880  0.35651596  0.53764622     0.78140
Zn1496     Zn  0.77379851  0.41313787  0.74287978     1.49720
Zn1497     Zn  0.75626859  0.35958951  0.80759422     1.49360
Zn1498     Zn  0.79584230  0.36032123  0.73613852     1.49110
Zn1499     Zn  0.83200070  0.41703075  0.79865855     1.49480
O1500       O  0.78991476  0.38901365  0.77191587    -1.83130
O1501       O  0.73129527  0.41031848  0.77133951    -0.73760
O1502       O  0.72256658  0.31536446  0.77656293    -0.73580
O1503       O  0.81060116  0.38352325  0.68558785    -0.73100
O1504       O  0.72799384  0.37914511  0.82316706    -0.73780
O1505       O  0.76823163  0.39520679  0.68578859    -0.73380
O1506       O  0.75125522  0.31937402  0.72158391    -0.73960
O1507       O  0.85963627  0.39309626  0.79936834    -0.73350
O1508       O  0.77839736  0.36329011  0.86069391    -0.74110
O1509       O  0.82792653  0.34816090  0.76012936    -0.73500
O1510       O  0.81893913  0.41831657  0.85468790    -0.73970
O1511       O  0.85641383  0.46484081  0.77543831    -0.73870
O1512       O  0.81268566  0.46144202  0.74141488    -0.73660
C1513       C  0.71849938  0.39707093  0.80497411     0.78130
C1514       C  0.72368900  0.30547007  0.74113059     0.78620
C1515       C  0.78920521  0.38874449  0.66748428     0.77580
C1516       C  0.85218751  0.36415401  0.78468816     0.77950
C1517       C  0.79880098  0.39280797  0.87573548     0.79090
C1518       C  0.84351190  0.47827997  0.75365729     0.78140
Zn1519     Zn  0.86482504  0.10933256  0.76476731     1.49720
Zn1520     Zn  0.91965735  0.14342215  0.70069295     1.49360
Zn1521     Zn  0.91942603  0.08744874  0.75788643     1.49110
Zn1522     Zn  0.86471072  0.06934542  0.69412210     1.49480
O1523       O  0.89376013  0.10331133  0.73010217    -1.83130
O1524       O  0.88655457  0.15749171  0.78013091    -0.73760
O1525       O  0.96703742  0.15148403  0.70062807    -0.73580
O1526       O  0.91977324  0.10254392  0.81376298    -0.73100
O1527       O  0.91821816  0.18424866  0.72780462    -0.73780
O1528       O  0.86554392  0.09076486  0.81771911    -0.73380
O1529       O  0.96831123  0.11039318  0.73515398    -0.73960
O1530       O  0.84972336  0.02446750  0.71734937    -0.73350
O1531       O  0.90332008  0.13127338  0.64321622    -0.74110
O1532       O  0.89224273  0.03477316  0.75843855    -0.73500
O1533       O  0.88885453  0.07636513  0.64443638    -0.73970
O1534       O  0.82505417  0.07454194  0.67933493    -0.73870
O1535       O  0.82113653  0.09918772  0.73454457    -0.73660
C1536       C  0.90534506  0.18464905  0.76150831     0.78130
C1537       C  0.98288035  0.13691544  0.71328579     0.78620
C1538       C  0.89422120  0.09889485  0.83370775     0.77580
C1539       C  0.86338173  0.01432045  0.74241345     0.77950
C1540       C  0.89569864  0.10312938  0.62563723     0.79090
C1541       C  0.81118686  0.08803788  0.69926164     0.78140
Zn1542     Zn  0.86789235  0.06883507  0.94415568     1.49720
Zn1543     Zn  0.92166287  0.09100936  0.50935966     1.49360
Zn1544     Zn  0.92064623  0.14387521  0.95018864     1.49110
Zn1545     Zn  0.86332008  0.10865656  0.51255902     1.49480
O1546       O  0.89459992  0.10409194  0.97987376    -1.83130
O1547       O  0.85475843  0.02394749  0.96936258    -0.73760
O1548       O  0.97026087  0.11304187  0.48675888    -0.73580
O1549       O  0.90270629  0.13036292  0.89319290    -0.73100
O1550       O  0.89720673  0.03916405  0.51252810    -0.73780
O1551       O  0.89423479  0.07743588  0.89571801    -0.73380
O1552       O  0.96806053  0.15147640  0.94824887    -0.73960
O1553       O  0.88312232  0.15727363  0.52688827    -0.73350
O1554       O  0.92077273  0.10707620  0.56410155    -0.74110
O1555       O  0.92126737  0.18507252  0.97973134    -0.73500
O1556       O  0.86513442  0.09094253  0.56603476    -0.73970
O1557       O  0.81830665  0.09360887  0.48145767    -0.73870
O1558       O  0.82769662  0.07255641  0.92642212    -0.73660
C1559       C  0.86957556  0.01655216  0.99615332     0.78130
C1560       C  0.98424792  0.13778997  0.96243527     0.78620
C1561       C  0.89757526  0.10269776  0.87621216     0.77580
C1562       C  0.90578800  0.18496601  0.01169388     0.77950
C1563       C  0.89385404  0.10073694  0.58305604     0.79090
C1564       C  0.81051132  0.08285258  0.94565154     0.78140
Zn1565     Zn  0.89204297  0.25029931  0.59762707     1.49720
Zn1566     Zn  0.91454503  0.32790465  0.58756693     1.49360
Zn1567     Zn  0.93038317  0.28909777  0.52519539     1.49110
Zn1568     Zn  0.85558746  0.26863591  0.53523040     1.49480
O1569       O  0.89725172  0.28443847  0.56224817    -1.83130
O1570       O  0.91223322  0.27315701  0.64973219    -0.73760
O1571       O  0.96749248  0.35353392  0.58841099    -0.73580
O1572       O  0.92517604  0.24406863  0.51118109    -0.73100
O1573       O  0.90015564  0.31517150  0.64391962    -0.73780
O1574       O  0.90149247  0.21616166  0.56669541    -0.73380
O1575       O  0.97637513  0.32027164  0.54715161    -0.73960
O1576       O  0.86525443  0.26284525  0.97713279    -0.73350
O1577       O  0.89092081  0.35267581  0.56334576    -0.74110
O1578       O  0.92058270  0.30334686  0.97529296    -0.73500
O1579       O  0.84633630  0.30691925  0.53595842    -0.73970
O1580       O  0.81543334  0.22833714  0.56550390    -0.73870
O1581       O  0.84404038  0.22300953  0.61512418    -0.73660
C1582       C  0.90398549  0.29405922  0.66478124     0.78130
C1583       C  0.98737060  0.34452270  0.57237748     0.78620
C1584       C  0.91195420  0.21689808  0.53116542     0.77580
C1585       C  0.89268440  0.28281541  0.95805883     0.77950
C1586       C  0.86191435  0.33836427  0.54570210     0.79090
C1587       C  0.81603961  0.21558174  0.59896087     0.78140
Zn1588     Zn  0.92261248  0.32687832  0.78490837     1.49720
Zn1589     Zn  0.91886842  0.26873788  0.84034458     1.49360
Zn1590     Zn  0.86470989  0.28916143  0.84549681     1.49110
Zn1591     Zn  0.86710992  0.25065582  0.77408939     1.49480
O1592       O  0.89481046  0.28464078  0.81081081    -1.83130
O1593       O  0.97020478  0.35117493  0.80893424    -0.73760
O1594       O  0.90061528  0.26257552  0.89688451    -0.73580
O1595       O  0.85276952  0.32159694  0.82180232    -0.73100
O1596       O  0.96701198  0.30772728  0.84304249    -0.73780
O1597       O  0.89870116  0.35446337  0.78485076    -0.73380
O1598       O  0.88609449  0.30291569  0.89752444    -0.73960
O1599       O  0.82367892  0.21444992  0.80428583    -0.73350
O1600       O  0.91651546  0.22644825  0.81219633    -0.74110
O1601       O  0.82424874  0.24368231  0.85756691    -0.73500
O1602       O  0.88988967  0.22570667  0.75706181    -0.73970
O1603       O  0.86939584  0.27285727  0.72186294    -0.73870
O1604       O  0.92406150  0.31439572  0.72853895    -0.73660
C1605       C  0.98367274  0.33852215  0.83105790     0.78130
C1606       C  0.89272758  0.28242388  0.91536675     0.78620
C1607       C  0.86939472  0.34658825  0.79854076     0.77580
C1608       C  0.81244100  0.21566027  0.83885688     0.77950
C1609       C  0.90594398  0.21510243  0.77715346     0.79090
C1610       C  0.89875757  0.29384890  0.70717046     0.78140
Zn1611     Zn  0.67354563  0.08005303  0.67347215     1.49720
Zn1612     Zn  0.71193013  0.13537311  0.61171805     1.49360
Zn1613     Zn  0.75134405  0.13553084  0.68318108     1.49110
Zn1614     Zn  0.73183042  0.08164016  0.61728665     1.49480
O1615       O  0.71664223  0.10663113  0.64747303    -1.83130
O1616       O  0.64722030  0.10617212  0.67465824    -0.73760
O1617       O  0.75690397  0.17570202  0.59884975    -0.73580
O1618       O  0.72980307  0.13189814  0.73667877    -0.73100
O1619       O  0.68042400  0.14873891  0.63422082    -0.73780
O1620       O  0.68604830  0.07824309  0.72948726    -0.73380
O1621       O  0.78547902  0.17988584  0.65373465    -0.73960
O1622       O  0.77168455  0.08025083  0.64682705    -0.73350
O1623       O  0.69750083  0.11268568  0.56066237    -0.74110
O1624       O  0.77861790  0.11464353  0.69735585    -0.73500
O1625       O  0.73939705  0.10043556  0.56052436    -0.73970
O1626       O  0.69164763  0.03431820  0.61404944    -0.73870
O1627       O  0.64851225  0.03180850  0.64908625    -0.73660
C1628       C  0.65594499  0.13491901  0.65884320     0.78130
C1629       C  0.78434766  0.18972494  0.61858941     0.78620
C1630       C  0.70783556  0.10279081  0.75095486     0.77580
C1631       C  0.78531437  0.09384876  0.68024275     0.77950
C1632       C  0.71897878  0.10751202  0.54235681     0.79090
C1633       C  0.66088582  0.01794309  0.62649820     0.78140
Zn1634     Zn  0.75194488  0.10693751  0.86022427     1.49720
Zn1635     Zn  0.67351483  0.08601325  0.87079966     1.49360
Zn1636     Zn  0.71130834  0.07093090  0.93265715     1.49110
Zn1637     Zn  0.73279965  0.14496580  0.92287368     1.49480
O1638       O  0.71733184  0.10346420  0.89520871    -1.83130
O1639       O  0.72898048  0.08917586  0.80726853    -0.73760
O1640       O  0.64779787  0.03308979  0.86950428    -0.73580
O1641       O  0.75564072  0.07590705  0.94723337    -0.73100
O1642       O  0.68620666  0.10023822  0.81461582    -0.73780
O1643       O  0.78259586  0.09101936  0.88953833    -0.73380
O1644       O  0.68067950  0.02456924  0.91086232    -0.73960
O1645       O  0.73955248  0.13512828  0.98068223    -0.73350
O1646       O  0.64845134  0.10959652  0.89571905    -0.74110
O1647       O  0.69638789  0.08107910  0.98205966    -0.73500
O1648       O  0.69397115  0.15390951  0.92374418    -0.73970
O1649       O  0.77247925  0.18469117  0.89116471    -0.73870
O1650       O  0.78193958  0.15564617  0.84462401    -0.73660
C1651       C  0.70768799  0.09710128  0.79313949     0.78130
C1652       C  0.65668824  0.01334301  0.88554224     0.78620
C1653       C  0.78140526  0.08292980  0.92612166     0.77580
C1654       C  0.71859155  0.10804966  0.49961992     0.77950
C1655       C  0.66254087  0.13843013  0.91398696     0.79090
C1656       C  0.78723092  0.18379373  0.85905117     0.78140
Zn1657     Zn  0.58624416  0.85146705  0.07532332     1.49720
Zn1658     Zn  0.64350859  0.88838333  0.13823115     1.49360
Zn1659     Zn  0.63903208  0.92524873  0.06699855     1.49110
Zn1660     Zn  0.58618463  0.90873409  0.13093498     1.49480
O1661       O  0.61249529  0.89225902  0.10440966    -1.83130
O1662       O  0.58480394  0.81067148  0.10558929    -0.73760
O1663       O  0.69016084  0.90524978  0.10852003    -0.73580
O1664       O  0.61349527  0.91502338  0.01817094    -0.73100
O1665       O  0.62451455  0.83948533  0.15109287    -0.73780
O1666       O  0.60475200  0.86201586  0.01838593    -0.73380
O1667       O  0.67921293  0.92152665  0.05141578    -0.73960
O1668       O  0.61267172  0.96128251  0.13222234    -0.73350
O1669       O  0.63840387  0.90439645  0.19257916    -0.74110
O1670       O  0.65372226  0.97117793  0.08895722    -0.73500
O1671       O  0.58468246  0.89410870  0.18660973    -0.73970
O1672       O  0.53786910  0.88627281  0.10686505    -0.73870
O1673       O  0.53913945  0.84481648  0.07218180    -0.73660
C1674       C  0.60124209  0.81143404  0.13674004     0.78130
C1675       C  0.69769770  0.91422621  0.07221313     0.78620
C1676       C  0.61005785  0.88898247  0.50000957     0.77580
C1677       C  0.64076980  0.98169953  0.11496514     0.77950
C1678       C  0.60933916  0.89690381  0.20742284     0.79090
C1679       C  0.52344379  0.85990929  0.08430180     0.78140
Zn1680     Zn  0.61144210  0.85666510  0.31804404     1.49360
Zn1681     Zn  0.59233375  0.91426749  0.32709374     1.49360
Zn1682     Zn  0.57576054  0.86116655  0.39017753     1.49110
Zn1683     Zn  0.64922990  0.91410716  0.38194246     1.49480
O1684       O  0.60863181  0.88804736  0.35288132    -1.83130
O1685       O  0.59615467  0.86224961  0.26391712    -0.73760
O1686       O  0.53991605  0.88716589  0.32624145    -0.73580
O1687       O  0.58039157  0.82168567  0.40485377    -0.73100
O1688       O  0.60702779  0.91606620  0.27112196    -0.73780
O1689       O  0.59478143  0.80978792  0.34663220    -0.73380
O1690       O  0.53010412  0.84564101  0.36817783    -0.73960
O1691       O  0.63822715  0.89576158  0.43876957    -0.73350
O1692       O  0.61472363  0.96253153  0.35162928    -0.74110
O1693       O  0.58491436  0.88621020  0.43950390    -0.73500
O1694       O  0.65664884  0.96166283  0.38502875    -0.73970
O1695       O  0.68938036  0.91325758  0.35239391    -0.73870
O1696       O  0.66000870  0.87463552  0.30573053    -0.73660
C1697       C  0.60394096  0.89141952  0.24967815     0.78130
C1698       C  0.51966521  0.85867661  0.34268794     0.78620
C1699       C  0.58707860  0.80289313  0.38333944     0.77580
C1700       C  0.61114570  0.89003206  0.45738891     0.77950
C1701       C  0.64136369  0.97720747  0.37353762     0.79090
C1702       C  0.68815027  0.89643957  0.32113681     0.78140
Zn1703     Zn  0.61587472  0.74780683  0.22233690     1.49720
Zn1704     Zn  0.57475806  0.70657628  0.15241186     1.49360
Zn1705     Zn  0.64879452  0.72575358  0.15812615     1.49110
Zn1706     Zn  0.59191079  0.66979464  0.21555771     1.49480
O1707       O  0.60875519  0.71193381  0.18797544    -1.83130
O1708       O  0.60663430  0.78155904  0.19151623    -0.73760
O1709       O  0.58139919  0.68855132  0.10280760    -0.73580
O1710       O  0.69126705  0.76598737  0.18784460    -0.73100
O1711       O  0.58072175  0.75185988  0.13728200    -0.73780
O1712       O  0.66414774  0.77423038  0.23749995    -0.73380
O1713       O  0.63634052  0.72959289  0.10010975    -0.73960
O1714       O  0.61358539  0.64303434  0.19233601    -0.73350
O1715       O  0.52970174  0.67653700  0.17655925    -0.74110
O1716       O  0.65479989  0.68548586  0.15735516    -0.73500
O1717       O  0.53913349  0.64422824  0.21783603    -0.73970
O1718       O  0.60807075  0.68472458  0.27076594    -0.73870
O1719       O  0.59806135  0.72823587  0.27592960    -0.73660
C1720       C  0.59514484  0.77982087  0.15643886     0.78130
C1721       C  0.60792694  0.70842788  0.08316756     0.78620
C1722       C  0.69164135  0.77998642  0.22122381     0.77580
C1723       C  0.63998134  0.65496779  0.17006939     0.77950
C1724       C  0.51904843  0.65275601  0.20190599     0.79090
C1725       C  0.60566743  0.70716022  0.29118954     0.78140
Zn1726     Zn  0.59314699  0.66990574  0.46494787     1.49720
Zn1727     Zn  0.61082730  0.74635351  0.46991735     1.49360
Zn1728     Zn  0.64990023  0.72649939  0.40878234     1.49110
Zn1729     Zn  0.57615954  0.70412394  0.39977410     1.49480
O1730       O  0.60912564  0.71162313  0.43728518    -1.83130
O1731       O  0.60889540  0.68590293  0.02069248    -0.73760
O1732       O  0.65879488  0.77848187  0.48262233    -0.73580
O1733       O  0.65962027  0.68812432  0.41046012    -0.73100
O1734       O  0.59524211  0.72699401  0.02427266    -0.73780
O1735       O  0.61614784  0.64392291  0.44106206    -0.73380
O1736       O  0.68931630  0.76944427  0.43762209    -0.73960
O1737       O  0.58434640  0.68458318  0.35294979    -0.73350
O1738       O  0.59367041  0.77467728  0.43937671    -0.74110
O1739       O  0.63716480  0.72966629  0.35079193    -0.73500
O1740       O  0.58158707  0.74819554  0.38121668    -0.73970
O1741       O  0.53076446  0.67529602  0.42365315    -0.73870
O1742       O  0.54025057  0.64446792  0.46712467    -0.73660
C1743       C  0.60447718  0.70750055  0.04044250     0.78130
C1744       C  0.68729157  0.78528801  0.46821706     0.78620
C1745       C  0.64438807  0.65715144  0.42181530     0.77580
C1746       C  0.60960660  0.70703990  0.33358532     0.77950
C1747       C  0.58716203  0.77367576  0.40230219     0.79090
C1748       C  0.52018327  0.65263421  0.45034357     0.78140
Zn1749     Zn  0.83261979  0.90789109  0.49525283     1.49720
Zn1750     Zn  0.79743444  0.92637364  0.05879497     1.49360
Zn1751     Zn  0.75690828  0.89155421  0.48628324     1.49110
Zn1752     Zn  0.77386227  0.85119056  0.04739065     1.49480
O1753       O  0.79013008  0.89294224  0.02104488    -1.83130
O1754       O  0.85915981  0.95987769  0.49350440    -0.73760
O1755       O  0.75309393  0.92185398  0.07442156    -0.73580
O1756       O  0.77946960  0.90807668  0.43301551    -0.73100
O1757       O  0.82954206  0.97250535  0.03632598    -0.73780
O1758       O  0.81901256  0.89257455  0.43927898    -0.73380
O1759       O  0.72704340  0.90795548  0.51617604    -0.73960
O1760       O  0.73190018  0.81260467  0.01682357    -0.73350
O1761       O  0.81207635  0.91548817  0.10768217    -0.74110
O1762       O  0.72491729  0.84366333  0.47149585    -0.73500
O1763       O  0.76842062  0.86159708  0.10545718    -0.73970
O1764       O  0.81188148  0.84089362  0.04684368    -0.73870
O1765       O  0.85772379  0.88528735  0.52001211    -0.73660
C1766       C  0.85260434  0.98132817  0.00998347     0.78130
C1767       C  0.72754802  0.91505631  0.05313389     0.78620
C1768       C  0.79900353  0.89797801  0.41819506     0.77580
C1769       C  0.71722344  0.81498267  0.98569991     0.77950
C1770       C  0.78978622  0.88846611  0.12477654     0.79090
C1771       C  0.84347938  0.85651636  0.03764601     0.78140
Zn1772     Zn  0.77380124  0.91313718  0.24287699     1.49720
Zn1773     Zn  0.75626960  0.85958739  0.30759209     1.49360
Zn1774     Zn  0.79584435  0.86032088  0.23613702     1.49110
Zn1775     Zn  0.83200174  0.91703037  0.29865866     1.49480
O1776       O  0.78991633  0.88901267  0.27191467    -1.83130
O1777       O  0.73130010  0.91032087  0.27133353    -0.73760
O1778       O  0.72257082  0.81536007  0.27656473    -0.73580
O1779       O  0.81060327  0.88352331  0.18558626    -0.73100
O1780       O  0.72799002  0.87913894  0.32315625    -0.73780
O1781       O  0.76823312  0.89520581  0.18578719    -0.73380
O1782       O  0.75125670  0.81937306  0.22158237    -0.73960
O1783       O  0.85963819  0.89309636  0.29936863    -0.73350
O1784       O  0.77839547  0.86329078  0.36069455    -0.74110
O1785       O  0.82792944  0.84816123  0.26012884    -0.73500
O1786       O  0.81893946  0.91831633  0.35468823    -0.73970
O1787       O  0.85641431  0.96484066  0.27543879    -0.73870
O1788       O  0.81268725  0.96144084  0.24141203    -0.73660
C1789       C  0.71850017  0.89706929  0.30496491     0.78130
C1790       C  0.72369191  0.80546632  0.24113182     0.78620
C1791       C  0.78920687  0.88874402  0.16748284     0.77580
C1792       C  0.85219021  0.86415438  0.28468809     0.77950
C1793       C  0.79879988  0.89280842  0.37573591     0.79090
C1794       C  0.84351271  0.97827933  0.25365643     0.78140
Zn1795     Zn  0.86482296  0.60933198  0.26476589     1.49720
Zn1796     Zn  0.91965895  0.64342184  0.20069392     1.49360
Zn1797     Zn  0.91942383  0.58744739  0.25788793     1.49110
Zn1798     Zn  0.86471039  0.56934455  0.19412162     1.49480
O1799       O  0.89375902  0.60331090  0.23010209    -1.83130
O1800       O  0.88655234  0.65749135  0.28012904    -0.73760
O1801       O  0.96703858  0.65147991  0.20063167    -0.73580
O1802       O  0.91977170  0.60254326  0.31376341    -0.73100
O1803       O  0.91822100  0.68424921  0.22780616    -0.73780
O1804       O  0.86554269  0.59076523  0.31771885    -0.73380
O1805       O  0.96830841  0.61038771  0.23515906    -0.73960
O1806       O  0.84972409  0.52446675  0.21734847    -0.73350
O1807       O  0.90332188  0.63127389  0.14321679    -0.74110
O1808       O  0.89224170  0.53477278  0.25844047    -0.73500
O1809       O  0.88885483  0.57636518  0.14443639    -0.73970
O1810       O  0.82505192  0.57453729  0.17933302    -0.73870
O1811       O  0.82113355  0.59918497  0.23454058    -0.73660
C1812       C  0.90534580  0.68464917  0.26150860     0.78130
C1813       C  0.98287954  0.63690958  0.21329109     0.78620
C1814       C  0.89421980  0.59889471  0.33370781     0.77580
C1815       C  0.86338187  0.51431987  0.24241351     0.77950
C1816       C  0.89569951  0.60312972  0.12563754     0.79090
C1817       C  0.81118320  0.58803246  0.19925836     0.78140
Zn1818     Zn  0.86789126  0.56883470  0.44415558     1.49720
Zn1819     Zn  0.92166352  0.59100982  0.00935995     1.49360
Zn1820     Zn  0.92064528  0.64387485  0.45018868     1.49110
Zn1821     Zn  0.86332133  0.60865681  0.01255963     1.49480
O1822       O  0.89459893  0.60409157  0.47987365    -1.83130
O1823       O  0.85475745  0.52394715  0.46936291    -0.73760
O1824       O  0.97026134  0.61304214  0.98675903    -0.73580
O1825       O  0.90270538  0.63036278  0.39319300    -0.73100
O1826       O  0.89720745  0.53916447  0.01252815    -0.73780
O1827       O  0.89423383  0.57743570  0.39571794    -0.73380
O1828       O  0.96805907  0.65147602  0.44824954    -0.73960
O1829       O  0.88312277  0.65727343  0.02688877    -0.73350
O1830       O  0.92077342  0.60707678  0.06410176    -0.74110
O1831       O  0.92126767  0.68507261  0.47973152    -0.73500
O1832       O  0.86513507  0.59094263  0.06603521    -0.73970
O1833       O  0.81830881  0.59360964  0.98145891    -0.73870
O1834       O  0.82769500  0.57255558  0.42642141    -0.73660
C1835       C  0.86957466  0.51655180  0.49615358     0.78130
C1836       C  0.98424705  0.63779024  0.46243577     0.78620
C1837       C  0.89757397  0.60269752  0.37621220     0.77580
C1838       C  0.90578836  0.68496624  0.51169400     0.77950
C1839       C  0.89385477  0.60073738  0.08305638     0.79090
C1840       C  0.81050916  0.58285148  0.44565027     0.78140
Zn1841     Zn  0.89204168  0.75029862  0.09762756     1.49720
Zn1842     Zn  0.91454458  0.82790401  0.08756659     1.49360
Zn1843     Zn  0.93037809  0.78909530  0.02519336     1.49110
Zn1844     Zn  0.85558572  0.76863496  0.03523041     1.49480
O1845       O  0.89724901  0.78443712  0.06224841    -1.83130
O1846       O  0.91223324  0.77315735  0.14973250    -0.73760
O1847       O  0.96749122  0.85352888  0.08841069    -0.73580
O1848       O  0.92517070  0.74406691  0.01117821    -0.73100
O1849       O  0.90015690  0.81517273  0.14392054    -0.73780
O1850       O  0.90149301  0.71616201  0.06669542    -0.73380
O1851       O  0.97636757  0.82026215  0.04715146    -0.73960
O1852       O  0.86525556  0.76284558  0.47713363    -0.73350
O1853       O  0.89092158  0.85267616  0.06334496    -0.74110
O1854       O  0.92058459  0.80334576  0.47529368    -0.73500
O1855       O  0.84633597  0.80691925  0.03595929    -0.73970
O1856       O  0.81543184  0.72833521  0.06550434    -0.73870
O1857       O  0.84403848  0.72300712  0.11512489    -0.73660
C1858       C  0.90398719  0.79406065  0.16478216     0.78130
C1859       C  0.98736525  0.84451171  0.07237897     0.78620
C1860       C  0.91195251  0.71689760  0.03116440     0.77580
C1861       C  0.89268577  0.78281505  0.45805980     0.77950
C1862       C  0.86191470  0.83836451  0.04570213     0.79090
C1863       C  0.81603770  0.71557874  0.09896085     0.78140
Zn1864     Zn  0.92261719  0.82687885  0.28491174     1.49720
Zn1865     Zn  0.91887390  0.76873942  0.34034814     1.49360
Zn1866     Zn  0.86471226  0.78916168  0.34549758     1.49110
Zn1867     Zn  0.86711234  0.75065726  0.27409109     1.49480
O1868       O  0.89481463  0.78464162  0.31081322    -1.83130
O1869       O  0.97020983  0.85117240  0.30894219    -0.73760
O1870       O  0.90061611  0.76257460  0.39688590    -0.73580
O1871       O  0.85277147  0.82159658  0.32180193    -0.73100
O1872       O  0.96702095  0.80772881  0.34305549    -0.73780
O1873       O  0.89870513  0.85446458  0.28485406    -0.73380
O1874       O  0.88609621  0.80291560  0.39752544    -0.73960
O1875       O  0.82368023  0.71445115  0.30428603    -0.73350
O1876       O  0.91651908  0.72644942  0.31219680    -0.74110
O1877       O  0.82425072  0.74368292  0.35756777    -0.73500
O1878       O  0.88989073  0.72570699  0.25706371    -0.73970
O1879       O  0.86939867  0.77285932  0.22186478    -0.73870
O1880       O  0.92406497  0.81439648  0.22854051    -0.73660
C1881       C  0.98367977  0.83852348  0.33106952     0.78130
C1882       C  0.89272875  0.78242338  0.41536783     0.78620
C1883       C  0.86939755  0.84658859  0.29854156     0.77580
C1884       C  0.81244232  0.71566116  0.33885717     0.77950
C1885       C  0.90594587  0.71510304  0.27715434     0.79090
C1886       C  0.89876036  0.79385059  0.20717192     0.78140
Zn1887     Zn  0.67353844  0.58003237  0.17345803     1.49720
Zn1888     Zn  0.71192907  0.63536550  0.11171537     1.49360
Zn1889     Zn  0.75133703  0.63552001  0.18317163     1.49110
Zn1890     Zn  0.73182203  0.58162246  0.11727289     1.49480
O1891       O  0.71663573  0.60661482  0.14746280    -1.83130
O1892       O  0.64721471  0.60615698  0.17464633    -0.73760
O1893       O  0.75690251  0.67569571  0.09884627    -0.73580
O1894       O  0.72979371  0.63188823  0.23666618    -0.73100
O1895       O  0.68042523  0.64873197  0.13422164    -0.73780
O1896       O  0.68604531  0.57822859  0.22947896    -0.73380
O1897       O  0.78547475  0.67987903  0.15373211    -0.73960
O1898       O  0.77167585  0.58023640  0.14682446    -0.73350
O1899       O  0.69750072  0.61268223  0.06066010    -0.74110
O1900       O  0.77861292  0.61463627  0.19734794    -0.73500
O1901       O  0.73940092  0.60043723  0.06052008    -0.73970
O1902       O  0.69163700  0.53429370  0.11400653    -0.73870
O1903       O  0.64850831  0.53178442  0.14905712    -0.73660
C1904       C  0.65594353  0.63490859  0.15883999     0.78130
C1905       C  0.78434521  0.68971961  0.11858734     0.78620
C1906       C  0.70782982  0.60278096  0.25094520     0.77580
C1907       C  0.78530833  0.59383945  0.18023808     0.77950
C1908       C  0.71898224  0.60751421  0.04235422     0.79090
C1909       C  0.66087540  0.51791867  0.12645738     0.78140
Zn1910     Zn  0.75194318  0.60693835  0.36022131     1.49720
Zn1911     Zn  0.67351868  0.58602781  0.37079169     1.49360
Zn1912     Zn  0.71130646  0.57093446  0.43265120     1.49110
Zn1913     Zn  0.73280050  0.64496843  0.42287580     1.49480
O1914       O  0.71733309  0.60347050  0.39520713    -1.83130
O1915       O  0.72897474  0.58917221  0.30726520    -0.73760
O1916       O  0.64779490  0.53311021  0.36948289    -0.73580
O1917       O  0.75563681  0.57590374  0.44722895    -0.73100
O1918       O  0.68621090  0.60024996  0.31460767    -0.73780
O1919       O  0.78259523  0.59102090  0.38953659    -0.73380
O1920       O  0.68067803  0.52458414  0.41083328    -0.73960
O1921       O  0.73955004  0.63512572  0.48068441    -0.73350
O1922       O  0.64845377  0.60960569  0.39571301    -0.74110
O1923       O  0.69638519  0.58107650  0.48205938    -0.73500
O1924       O  0.69397196  0.65391294  0.42374795    -0.73970
O1925       O  0.77248127  0.68469229  0.39116574    -0.73870
O1926       O  0.78193819  0.65564691  0.34462151    -0.73660
C1927       C  0.70768446  0.59709928  0.29313227     0.78130
C1928       C  0.65668867  0.51336327  0.38551067     0.78620
C1929       C  0.78140298  0.58292865  0.42611917     0.77580
C1930       C  0.71859457  0.60805266  0.99961848     0.77950
C1931       C  0.66254235  0.63843570  0.41398757     0.79090
C1932       C  0.78723149  0.68379460  0.35905082     0.78140
Zn1933     Zn  0.58627277  0.85152175  0.57529439     1.49720
Zn1934     Zn  0.64351127  0.88840498  0.63822961     1.49360
Zn1935     Zn  0.63907014  0.92530475  0.56702289     1.49110
Zn1936     Zn  0.58618855  0.90876160  0.63093746     1.49480
O1937       O  0.61250710  0.89229707  0.60440732    -1.83130
O1938       O  0.58483804  0.81070677  0.60553298    -0.73760
O1939       O  0.69016316  0.90525481  0.60852476    -0.73580
O1940       O  0.61356788  0.91514223  0.51817646    -0.73100
O1941       O  0.62450738  0.83950553  0.65108097    -0.73780
O1942       O  0.60479247  0.86212171  0.51836330    -0.73380
O1943       O  0.67923964  0.92156837  0.55143278    -0.73960
O1944       O  0.61267048  0.96131072  0.63223029    -0.73350
O1945       O  0.63840772  0.90441035  0.69258098    -0.74110
O1946       O  0.65376153  0.97121044  0.58902184    -0.73500
O1947       O  0.58468900  0.89413055  0.68661129    -0.73970
O1948       O  0.53787011  0.88628958  0.60686801    -0.73870
O1949       O  0.53915959  0.84485442  0.57216026    -0.73660
C1950       C  0.60125335  0.81145766  0.63670145     0.78130
C1951       C  0.69770862  0.91424259  0.57222240     0.78620
C1952       C  0.60999902  0.88886385  0.00001762     0.77580
C1953       C  0.64078724  0.98172721  0.61500617     0.77950
C1954       C  0.60934261  0.89691701  0.70742372     0.79090
C1955       C  0.52345264  0.85993178  0.58429469     0.78140
Zn1956     Zn  0.61144199  0.85665672  0.81803052     1.49360
Zn1957     Zn  0.59233149  0.91425646  0.82710243     1.49360
Zn1958     Zn  0.57573469  0.86112397  0.89015656     1.49110
Zn1959     Zn  0.64920279  0.91405797  0.88197687     1.49480
O1960       O  0.60861982  0.88802442  0.85288279    -1.83130
O1961       O  0.59615438  0.86224890  0.76390690    -0.73760
O1962       O  0.53991201  0.88716482  0.82624552    -0.73580
O1963       O  0.58035589  0.82164101  0.90481268    -0.73100
O1964       O  0.60702628  0.91606356  0.77112974    -0.73780
O1965       O  0.59479807  0.80977626  0.84660600    -0.73380
O1966       O  0.53009071  0.84561796  0.86815225    -0.73960
O1967       O  0.63817270  0.89564591  0.93878056    -0.73350
O1968       O  0.61473326  0.96251784  0.85164437    -0.74110
O1969       O  0.58486921  0.88611836  0.93951036    -0.73500
O1970       O  0.65662111  0.96162255  0.88509879    -0.73970
O1971       O  0.68936308  0.91322549  0.85242226    -0.73870
O1972       O  0.66000945  0.87464347  0.80571590    -0.73660
C1973       C  0.60394076  0.89142195  0.74967742     0.78130
C1974       C  0.51965734  0.85866850  0.84267622     0.78620
C1975       C  0.58707237  0.80286745  0.88330638     0.77580
C1976       C  0.61108824  0.88991067  0.95739707     0.77950
C1977       C  0.64135639  0.97718152  0.87358063     0.79090
C1978       C  0.68814506  0.89643398  0.82114496     0.78140
Zn1979     Zn  0.61587175  0.74782130  0.72232139     1.49720
Zn1980     Zn  0.57475858  0.70658890  0.65239862     1.49360
Zn1981     Zn  0.64879450  0.72576026  0.65812277     1.49110
Zn1982     Zn  0.59191033  0.66980507  0.71554910     1.49480
O1983       O  0.60875400  0.71194538  0.68796687    -1.83130
O1984       O  0.60663638  0.78157461  0.69147971    -0.73760
O1985       O  0.58140209  0.68854960  0.60280750    -0.73580
O1986       O  0.69126680  0.76599051  0.68784319    -0.73100
O1987       O  0.58072697  0.75187610  0.63724437    -0.73780
O1988       O  0.66414479  0.77424457  0.73748645    -0.73380
O1989       O  0.63634169  0.72959588  0.60010687    -0.73960
O1990       O  0.61358485  0.64304375  0.69233343    -0.73350
O1991       O  0.52970156  0.67654735  0.67655301    -0.74110
O1992       O  0.65480005  0.68549439  0.65735351    -0.73500
O1993       O  0.53913480  0.64423667  0.71782616    -0.73970
O1994       O  0.60806720  0.68473271  0.77075647    -0.73870
O1995       O  0.59806678  0.72825022  0.77592376    -0.73660
C1996       C  0.59515131  0.77983877  0.65639915     0.78130
C1997       C  0.60792888  0.70842660  0.58316641     0.78620
C1998       C  0.69163912  0.77999352  0.72121860     0.77580
C1999       C  0.63998161  0.65497709  0.67006860     0.77950
C2000       C  0.51904916  0.65276462  0.70189853     0.79090
C2001       C  0.60566775  0.70716942  0.79118214     0.78140
Zn2002     Zn  0.59314815  0.66990409  0.96494950     1.49720
Zn2003     Zn  0.61082676  0.74635059  0.96991006     1.49360
Zn2004     Zn  0.64990084  0.72649751  0.90877849     1.49110
Zn2005     Zn  0.57616125  0.70411108  0.89976695     1.49480
O2006       O  0.60912736  0.71161878  0.93728316    -1.83130
O2007       O  0.60889415  0.68590120  0.52069100    -0.73760
O2008       O  0.65879395  0.77848317  0.98261648    -0.73580
O2009       O  0.65961826  0.68811917  0.91045399    -0.73100
O2010       O  0.59524256  0.72699335  0.52427564    -0.73780
O2011       O  0.61614866  0.64392050  0.94106392    -0.73380
O2012       O  0.68931675  0.76944206  0.93762176    -0.73960
O2013       O  0.58435232  0.68457497  0.85294087    -0.73350
O2014       O  0.59366827  0.77466497  0.93935225    -0.74110
O2015       O  0.63716272  0.72967083  0.85078874    -0.73500
O2016       O  0.58158854  0.74817533  0.88119691    -0.73970
O2017       O  0.53076451  0.67528864  0.92364589    -0.73870
O2018       O  0.54025135  0.64446769  0.96712686    -0.73660
C2019       C  0.60447731  0.70749888  0.54044263     0.78130
C2020       C  0.68729131  0.78528788  0.96821437     0.78620
C2021       C  0.64438679  0.65714693  0.92181284     0.77580
C2022       C  0.60960708  0.70704298  0.83357875     0.77950
C2023       C  0.58716152  0.77365718  0.90227611     0.79090
C2024       C  0.52018375  0.65263159  0.95034181     0.78140
Zn2025     Zn  0.83262063  0.90789130  0.99525243     1.49720
Zn2026     Zn  0.79743520  0.92637285  0.55879569     1.49360
Zn2027     Zn  0.75691021  0.89155429  0.98628112     1.49110
Zn2028     Zn  0.77386192  0.85119043  0.54739179     1.49480
O2029       O  0.79012904  0.89294150  0.52104517    -1.83130
O2030       O  0.85916022  0.95987791  0.99350368    -0.73760
O2031       O  0.75309790  0.92185556  0.57442573    -0.73580
O2032       O  0.77947180  0.90807744  0.93301458    -0.73100
O2033       O  0.82954127  0.97250476  0.53632630    -0.73780
O2034       O  0.81901322  0.89257351  0.93927872    -0.73380
O2035       O  0.72704297  0.90795287  0.01616971    -0.73960
O2036       O  0.73190068  0.81260484  0.51682483    -0.73350
O2037       O  0.81207659  0.91548755  0.60768320    -0.74110
O2038       O  0.72491874  0.84366340  0.97149336    -0.73500
O2039       O  0.76841952  0.86159726  0.60545828    -0.73970
O2040       O  0.81188109  0.84089340  0.54684471    -0.73870
O2041       O  0.85772468  0.88528797  0.02001241    -0.73660
C2042       C  0.85260356  0.98132779  0.50998381     0.78130
C2043       C  0.72755209  0.91506113  0.55314029     0.78620
C2044       C  0.79900474  0.89797752  0.91819452     0.77580
C2045       C  0.71722340  0.81498279  0.48570175     0.77950
C2046       C  0.78978511  0.88846626  0.62477775     0.79090
C2047       C  0.84347880  0.85651596  0.53764622     0.78140
Zn2048     Zn  0.77379850  0.91313785  0.74287978     1.49720
Zn2049     Zn  0.75626858  0.85958951  0.80759422     1.49360
Zn2050     Zn  0.79584229  0.86032122  0.73613853     1.49110
Zn2051     Zn  0.83200070  0.91703074  0.79865855     1.49480
O2052       O  0.78991475  0.88901364  0.77191587    -1.83130
O2053       O  0.73129526  0.91031847  0.77133951    -0.73760
O2054       O  0.72256657  0.81536446  0.77656293    -0.73580
O2055       O  0.81060115  0.88352324  0.68558785    -0.73100
O2056       O  0.72799384  0.87914512  0.82316707    -0.73780
O2057       O  0.76823162  0.89520678  0.68578859    -0.73380
O2058       O  0.75125522  0.81937401  0.72158392    -0.73960
O2059       O  0.85963627  0.89309625  0.79936835    -0.73350
O2060       O  0.77839735  0.86329010  0.86069391    -0.74110
O2061       O  0.82792652  0.84816090  0.76012937    -0.73500
O2062       O  0.81893913  0.91831656  0.85468791    -0.73970
O2063       O  0.85641382  0.96484081  0.77543831    -0.73870
O2064       O  0.81268565  0.96144201  0.74141487    -0.73660
C2065       C  0.71849938  0.89707093  0.80497412     0.78130
C2066       C  0.72368900  0.80547007  0.74113059     0.78620
C2067       C  0.78920520  0.88874447  0.66748428     0.77580
C2068       C  0.85218751  0.86415401  0.78468816     0.77950
C2069       C  0.79880097  0.89280796  0.87573549     0.79090
C2070       C  0.84351189  0.97827996  0.75365729     0.78140
Zn2071     Zn  0.86482505  0.60933257  0.76476731     1.49720
Zn2072     Zn  0.91965736  0.64342217  0.70069295     1.49360
Zn2073     Zn  0.91942604  0.58744875  0.75788644     1.49110
Zn2074     Zn  0.86471074  0.56934544  0.69412210     1.49480
O2075       O  0.89376014  0.60331134  0.73010218    -1.83130
O2076       O  0.88655458  0.65749172  0.78013091    -0.73760
O2077       O  0.96703744  0.65148404  0.70062807    -0.73580
O2078       O  0.91977325  0.60254393  0.81376298    -0.73100
O2079       O  0.91821818  0.68424868  0.72780463    -0.73780
O2080       O  0.86554394  0.59076488  0.81771911    -0.73380
O2081       O  0.96831124  0.61039319  0.73515398    -0.73960
O2082       O  0.84972338  0.52446751  0.71734937    -0.73350
O2083       O  0.90332010  0.63127339  0.64321622    -0.74110
O2084       O  0.89224274  0.53477317  0.75843855    -0.73500
O2085       O  0.88885455  0.57636515  0.64443638    -0.73970
O2086       O  0.82505419  0.57454195  0.67933492    -0.73870
O2087       O  0.82113655  0.59918773  0.73454457    -0.73660
C2088       C  0.90534508  0.68464906  0.76150831     0.78130
C2089       C  0.98288037  0.63691545  0.71328579     0.78620
C2090       C  0.89422121  0.59889486  0.83370775     0.77580
C2091       C  0.86338174  0.51432046  0.74241345     0.77950
C2092       C  0.89569866  0.60312940  0.62563723     0.79090
C2093       C  0.81118687  0.58803789  0.69926164     0.78140
Zn2094     Zn  0.86789236  0.56883508  0.94415568     1.49720
Zn2095     Zn  0.92166287  0.59100936  0.50935966     1.49360
Zn2096     Zn  0.92064624  0.64387522  0.95018864     1.49110
Zn2097     Zn  0.86332008  0.60865657  0.51255903     1.49480
O2098       O  0.89459993  0.60409195  0.97987377    -1.83130
O2099       O  0.85475844  0.52394750  0.96936258    -0.73760
O2100       O  0.97026086  0.61304187  0.48675887    -0.73580
O2101       O  0.90270629  0.63036293  0.89319290    -0.73100
O2102       O  0.89720673  0.53916405  0.51252810    -0.73780
O2103       O  0.89423480  0.57743589  0.89571802    -0.73380
O2104       O  0.96806054  0.65147641  0.94824887    -0.73960
O2105       O  0.88312232  0.65727364  0.52688827    -0.73350
O2106       O  0.92077274  0.60707621  0.56410155    -0.74110
O2107       O  0.92126738  0.68507254  0.97973134    -0.73500
O2108       O  0.86513443  0.59094255  0.56603477    -0.73970
O2109       O  0.81830664  0.59360887  0.48145768    -0.73870
O2110       O  0.82769663  0.57255642  0.92642212    -0.73660
C2111       C  0.86957557  0.51655217  0.99615333     0.78130
C2112       C  0.98424792  0.63778998  0.96243527     0.78620
C2113       C  0.89757527  0.60269777  0.87621216     0.77580
C2114       C  0.90578801  0.68496602  0.01169387     0.77950
C2115       C  0.89385405  0.60073695  0.58305604     0.79090
C2116       C  0.81051133  0.58285258  0.94565154     0.78140
Zn2117     Zn  0.89204297  0.75029932  0.59762707     1.49720
Zn2118     Zn  0.91454503  0.82790466  0.58756693     1.49360
Zn2119     Zn  0.93038317  0.78909778  0.52519540     1.49110
Zn2120     Zn  0.85558746  0.76863591  0.53523040     1.49480
O2121       O  0.89725172  0.78443848  0.56224817    -1.83130
O2122       O  0.91223323  0.77315701  0.64973219    -0.73760
O2123       O  0.96749248  0.85353393  0.58841099    -0.73580
O2124       O  0.92517604  0.74406864  0.51118109    -0.73100
O2125       O  0.90015564  0.81517151  0.64391963    -0.73780
O2126       O  0.90149247  0.71616166  0.56669542    -0.73380
O2127       O  0.97637513  0.82027165  0.54715161    -0.73960
O2128       O  0.86525443  0.76284525  0.97713279    -0.73350
O2129       O  0.89092081  0.85267582  0.56334577    -0.74110
O2130       O  0.92058270  0.80334687  0.97529296    -0.73500
O2131       O  0.84633630  0.80691925  0.53595843    -0.73970
O2132       O  0.81543334  0.72833714  0.56550390    -0.73870
O2133       O  0.84404038  0.72300953  0.61512418    -0.73660
C2134       C  0.90398549  0.79405923  0.66478125     0.78130
C2135       C  0.98737060  0.84452271  0.57237749     0.78620
C2136       C  0.91195420  0.71689808  0.53116542     0.77580
C2137       C  0.89268440  0.78281542  0.95805883     0.77950
C2138       C  0.86191435  0.83836427  0.54570210     0.79090
C2139       C  0.81603962  0.71558174  0.59896087     0.78140
Zn2140     Zn  0.92261248  0.82687833  0.78490838     1.49720
Zn2141     Zn  0.91886843  0.76873789  0.84034459     1.49360
Zn2142     Zn  0.86470990  0.78916143  0.84549682     1.49110
Zn2143     Zn  0.86710993  0.75065583  0.77408939     1.49480
O2144       O  0.89481047  0.78464078  0.81081081    -1.83130
O2145       O  0.97020479  0.85117494  0.80893425    -0.73760
O2146       O  0.90061529  0.76257552  0.89688452    -0.73580
O2147       O  0.85276952  0.82159694  0.82180232    -0.73100
O2148       O  0.96701198  0.80772729  0.84304250    -0.73780
O2149       O  0.89870116  0.85446338  0.78485077    -0.73380
O2150       O  0.88609449  0.80291569  0.89752444    -0.73960
O2151       O  0.82367893  0.71444992  0.80428583    -0.73350
O2152       O  0.91651547  0.72644826  0.81219634    -0.74110
O2153       O  0.82424875  0.74368231  0.85756691    -0.73500
O2154       O  0.88988970  0.72570669  0.75706181    -0.73970
O2155       O  0.86939585  0.77285727  0.72186294    -0.73870
O2156       O  0.92406151  0.81439574  0.72853895    -0.73660
C2157       C  0.98367275  0.83852216  0.83105791     0.78130
C2158       C  0.89272758  0.78242389  0.91536676     0.78620
C2159       C  0.86939472  0.84658825  0.79854076     0.77580
C2160       C  0.81244101  0.71566027  0.83885688     0.77950
C2161       C  0.90594399  0.71510245  0.77715346     0.79090
C2162       C  0.89875758  0.79384891  0.70717046     0.78140
Zn2163     Zn  0.67354563  0.58005303  0.67347215     1.49720
Zn2164     Zn  0.71193014  0.63537311  0.61171806     1.49360
Zn2165     Zn  0.75134406  0.63553084  0.68318108     1.49110
Zn2166     Zn  0.73183042  0.58164015  0.61728665     1.49480
O2167       O  0.71664224  0.60663112  0.64747303    -1.83130
O2168       O  0.64722030  0.60617212  0.67465824    -0.73760
O2169       O  0.75690397  0.67570201  0.59884975    -0.73580
O2170       O  0.72980307  0.63189813  0.73667877    -0.73100
O2171       O  0.68042401  0.64873891  0.63422082    -0.73780
O2172       O  0.68604830  0.57824308  0.72948726    -0.73380
O2173       O  0.78547902  0.67988584  0.65373465    -0.73960
O2174       O  0.77168456  0.58025083  0.64682705    -0.73350
O2175       O  0.69750083  0.61268567  0.56066237    -0.74110
O2176       O  0.77861791  0.61464353  0.69735585    -0.73500
O2177       O  0.73939705  0.60043555  0.56052436    -0.73970
O2178       O  0.69164763  0.53431819  0.61404944    -0.73870
O2179       O  0.64851225  0.53180850  0.64908625    -0.73660
C2180       C  0.65594500  0.63491901  0.65884320     0.78130
C2181       C  0.78434767  0.68972494  0.61858941     0.78620
C2182       C  0.70783556  0.60279080  0.75095486     0.77580
C2183       C  0.78531438  0.59384876  0.68024275     0.77950
C2184       C  0.71897878  0.60751202  0.54235681     0.79090
C2185       C  0.66088582  0.51794309  0.62649820     0.78140
Zn2186     Zn  0.75194488  0.60693751  0.86022426     1.49720
Zn2187     Zn  0.67351484  0.58601325  0.87079966     1.49360
Zn2188     Zn  0.71130835  0.57093090  0.93265714     1.49110
Zn2189     Zn  0.73279966  0.64496580  0.92287368     1.49480
O2190       O  0.71733185  0.60346420  0.89520870    -1.83130
O2191       O  0.72898049  0.58917586  0.80726852    -0.73760
O2192       O  0.64779787  0.53308978  0.86950428    -0.73580
O2193       O  0.75564073  0.57590705  0.94723337    -0.73100
O2194       O  0.68620667  0.60023822  0.81461582    -0.73780
O2195       O  0.78259587  0.59101936  0.88953833    -0.73380
O2196       O  0.68067950  0.52456924  0.91086232    -0.73960
O2197       O  0.73955249  0.63512828  0.98068222    -0.73350
O2198       O  0.64845134  0.60959652  0.89571905    -0.74110
O2199       O  0.69638790  0.58107910  0.98205966    -0.73500
O2200       O  0.69397116  0.65390951  0.92374417    -0.73970
O2201       O  0.77247926  0.68469117  0.89116470    -0.73870
O2202       O  0.78193959  0.65564617  0.84462401    -0.73660
C2203       C  0.70768800  0.59710127  0.79313948     0.78130
C2204       C  0.65668825  0.51334300  0.88554224     0.78620
C2205       C  0.78140527  0.58292981  0.92612166     0.77580
C2206       C  0.71859154  0.60804965  0.49961992     0.77950
C2207       C  0.66254087  0.63843012  0.91398695     0.79090
C2208       C  0.78723093  0.68379373  0.85905117     0.78140
loop_ 
_geom_bond_atom_site_label_1 
_geom_bond_atom_site_label_2 
_geom_bond_distance 
_geom_bond_site_symmetry_2 
_ccdc_geom_bond_type 
Zn1           O5   1.888       .  S
Zn1           O6   2.097       .  S
Zn1          O10   2.061       .  S
Zn1          O17   2.004       .  S
Zn2           O5   1.895       .  S
Zn2           O7   2.105       .  S
Zn2           O9   1.985       .  S
Zn2          O13   2.027       .  S
Zn3           O5   1.869       .  S
Zn3           O8   1.937       .  S
Zn3          O11   1.982       .  S
Zn3          O14   1.978       .  S
Zn4           O5   1.915       .  S
Zn4          O12   2.058       .  S
Zn4          O15   1.994       .  S
Zn4          O16   2.061       .  S
O6           C18   1.285       .  A
O7           C19   1.288       .  A
O8          C296   1.268       .  A
O9           C18   1.267       .  A
O10         C296   1.284       .  A
O11          C19   1.265       .  A
O12          C21   1.278       .  A
O13          C22   1.284       .  A
O14          C21   1.272       .  A
O15          C22   1.275       .  A
O16          C23   1.280       .  A
O17          C23   1.276       .  A
C18          C64   1.482       .  S
C19         C111   1.480       .  S
C20         O284   1.268       .  A
C20         O286   1.284       .  A
C20          C44   1.444       .  S
C21         C805   1.470       .  S
C22          C41   1.453       .  S
C23        C1307   1.474   1_455  S
Zn24         O28   1.894       .  S
Zn24         O29   2.026       .  S
Zn24         O33   2.107       .  S
Zn24         O40   1.968       .  S
Zn25         O28   1.908       .  S
Zn25         O30   2.052       .  S
Zn25         O32   1.995       .  S
Zn25         O36   2.060       .  S
Zn26         O28   1.865       .  S
Zn26         O31   1.975       .  S
Zn26         O34   1.967       .  S
Zn26         O37   1.936       .  S
Zn27         O28   1.885       .  S
Zn27         O35   2.061       .  S
Zn27         O38   2.011       .  S
Zn27         O39   2.091       .  S
O29          C41   1.284       .  A
O30          C42   1.278       .  A
O31          C43   1.264       .  A
O32          C41   1.275       .  A
O33          C43   1.288       .  A
O34          C42   1.271       .  A
O35          C44   1.283       .  A
O36          C45   1.281       .  A
O37          C44   1.268       .  A
O38          C45   1.278       .  A
O39          C46   1.284       .  A
O40          C46   1.265       .  A
C42        C1329   1.465   1_455  S
C43          C91   1.481       .  S
C45         C824   1.475       .  S
C46         C133   1.466       .  S
Zn47         O51   1.883       .  S
Zn47         O52   2.073       .  S
Zn47         O56   1.960       .  S
Zn47         O63   2.007       .  S
Zn48         O51   1.876       .  S
Zn48         O53   1.949       .  S
Zn48         O55   2.004       .  S
Zn48         O59   1.973       .  S
Zn49         O51   1.885       .  S
Zn49         O54   2.118       .  S
Zn49         O57   2.080       .  S
Zn49         O60   1.979       .  S
Zn50         O51   1.914       .  S
Zn50         O58   2.059       .  S
Zn50         O61   2.067       .  S
Zn50         O62   1.995       .  S
O52          C64   1.285       .  A
O53          C65   1.269       .  A
O54          C66   1.287       .  A
O55          C64   1.268       .  A
O56          C66   1.262       .  A
O57          C65   1.288       .  A
O58          C67   1.280       .  A
O59          C68   1.273       .  A
O60          C67   1.274       .  A
O61          C68   1.279       .  A
O62          C69   1.275       .  A
O63          C69   1.283       .  A
C65          C87   1.454       .  S
C66         C134   1.483       .  S
C67         C248   1.468       .  S
C68        C1261   1.471   1_455  S
C69          C90   1.448       .  S
Zn70         O74   1.905       .  S
Zn70         O79   2.086       .  S
Zn70         O86   2.072       .  S
Zn70        O351   2.016       .  S
Zn71         O74   1.886       .  S
Zn71         O76   1.958       .  S
Zn71         O82   2.091       .  S
Zn71        O354   2.013       .  S
Zn72         O74   1.881       .  S
Zn72         O77   2.002       .  S
Zn72         O80   2.099       .  S
Zn72         O83   2.076       .  S
Zn73         O74   1.860       .  S
Zn73         O81   1.933       .  S
Zn73         O84   1.995       .  S
Zn73         O85   1.971       .  S
O75        Zn346   2.016   1_554  S
O75          C87   1.278       .  A
O76          C88   1.264       .  A
O77          C89   1.276       .  A
O78        Zn347   2.013   1_554  S
O78          C87   1.282       .  A
O79          C89   1.283       .  A
O80          C88   1.285       .  A
O81          C90   1.267       .  A
O82          C91   1.286       .  A
O83          C90   1.286       .  A
O84          C91   1.265       .  A
O85          C92   1.273       .  A
O86          C92   1.280       .  A
C88         C389   1.467       .  S
C89         C275   1.473       .  S
C92        C1284   1.472   1_455  S
Zn93        O373   1.900       .  S
Zn93         O98   2.037       .  S
Zn93        O102   2.002       .  S
Zn93        O109   2.064       .  S
Zn94         O97   1.872       .  S
Zn94         O99   1.985       .  S
Zn94        O101   2.005       .  S
Zn94        O105   1.945       .  S
Zn95        O373   1.892       .  S
Zn95        O100   2.024       .  S
Zn95        O103   2.099       .  S
Zn95        O106   1.969       .  S
Zn96         O97   1.882       .  S
Zn96        O104   2.092       .  S
Zn96        O107   2.060       .  S
Zn96        O108   2.001       .  S
O97        Zn369   1.900   1_554  S
O97        Zn371   1.892   1_554  S
O98         C386   1.276       .  A
O99         C111   1.265       .  A
O100        C112   1.284       .  A
O101        C110   1.274       .  A
O102        C112   1.276       .  A
O103        C387   1.287       .  A
O104        C113   1.284   1_554  A
O105        C114   1.271       .  A
O106        C389   1.264       .  A
O107        C114   1.285       .  A
O108        C115   1.275       .  A
O109        C391   1.280       .  A
C110        O374   1.276   1_554  A
C110       C1007   1.461   1_554  S
C111        O379   1.287       .  A
C112        C137   1.454       .  S
C113        O382   1.264       .  A
C113        C364   1.467       .  S
C114        C135   1.446       .  S
C115        O385   1.280       .  A
C115        C206   1.468       .  S
Zn116       O120   1.881       .  S
Zn116       O121   2.096       .  S
Zn116       O125   2.057       .  S
Zn116       O132   2.003       .  S
Zn117       O120   1.877       .  S
Zn117       O122   2.084       .  S
Zn117       O124   1.961       .  S
Zn117       O128   2.028       .  S
Zn118       O120   1.886       .  S
Zn118       O123   1.949       .  S
Zn118       O126   1.995       .  S
Zn118       O129   1.979       .  S
Zn119       O120   1.903       .  S
Zn119       O127   2.032       .  S
Zn119       O130   1.994       .  S
Zn119       O131   2.037       .  S
O121        C133   1.284       .  A
O122        C134   1.287       .  A
O123        C135   1.271       .  A
O124        C133   1.262       .  A
O125        C135   1.284       .  A
O126        C134   1.265       .  A
O127        C136   1.276       .  A
O128        C137   1.284       .  A
O129        C136   1.273       .  A
O130        C137   1.274       .  A
O131        C138   1.278       .  A
O132        C138   1.277       .  A
C136        C227   1.451       .  S
C138        C711   1.467       .  S
Zn139       O143   1.875       .  S
Zn139       O144   1.956       .  S
Zn139       O148   1.996       .  S
Zn139       O155   2.068       .  S
Zn140       O143   1.883       .  S
Zn140       O145   1.989       .  S
Zn140       O147   2.090       .  S
Zn140       O151   2.055       .  S
Zn141       O143   1.905       .  S
Zn141       O146   2.004       .  S
Zn141       O149   2.063       .  S
Zn141       O152   2.063       .  S
Zn142       O143   1.877       .  S
Zn142       O150   1.963       .  S
Zn142       O153   1.942       .  S
Zn142       O154   1.995       .  S
O144        C156   1.261       .  A
O145        C157   1.275       .  A
O146        C158   1.275       .  A
O147        C156   1.283       .  A
O148        C158   1.280       .  A
O149        C157   1.281       .  A
O150        C159   1.272       .  A
O151        C160   1.283       .  A
O152        C159   1.280       .  A
O153        C160   1.268       .  A
O154        C161   1.266       .  A
O155        C161   1.285       .  A
C156        C229   1.463       .  S
C157       C1172   1.471       .  S
C158        C181   1.448       .  S
C159        C690   1.467   1_545  S
C160        C183   1.445       .  S
C161        C251   1.478       .  S
Zn162       O166   1.873       .  S
Zn162       O167   2.009       .  S
Zn162       O171   1.947       .  S
Zn162       O178   2.009       .  S
Zn163       O442   1.902   1_554  S
Zn163       O168   2.053   1_554  S
Zn163       O170   2.035       .  S
Zn163       O174   1.993       .  S
Zn164       O166   1.880       .  S
Zn164       O169   2.062       .  S
Zn164       O172   1.999       .  S
Zn164       O175   2.100       .  S
Zn165       O442   1.886   1_554  S
Zn165       O173   1.972       .  S
Zn165       O176   2.007       .  S
Zn165       O177   2.084   1_554  S
O166       Zn439   1.902       .  S
O166       Zn441   1.886       .  S
O167        C179   1.276       .  A
O168        C456   1.279       .  A
O169        C181   1.286       .  A
O170        C455   1.276   1_554  A
O171        C181   1.270       .  A
O172        C180   1.275       .  A
O173        C458   1.266       .  A
O174        C183   1.275       .  A
O175        C182   1.286       .  A
O176        C183   1.282       .  A
O177        C460   1.285       .  A
O178        C184   1.268       .  A
C179        O446   1.276       .  A
C179        C938   1.461   1_545  S
C180        O444   1.279       .  A
C180       C1196   1.472       .  S
C182        O449   1.266       .  A
C182        C480   1.479       .  S
C184        O453   1.285       .  A
C184        C273   1.481       .  S
Zn185       O189   1.885       .  S
Zn185       O190   2.012       .  S
Zn185       O194   2.078       .  S
Zn185       O201   1.975       .  S
Zn186       O189   1.911       .  S
Zn186       O191   2.073       .  S
Zn186       O193   2.007       .  S
Zn186       O197   2.081       .  S
Zn187       O189   1.882       .  S
Zn187       O192   1.988       .  S
Zn187       O195   1.979       .  S
Zn187       O474   1.947   1_554  S
Zn188       O189   1.886       .  S
Zn188       O199   1.983       .  S
Zn188       O200   2.089       .  S
Zn188       O472   2.057   1_554  S
O190        C202   1.283       .  A
O191        C203   1.280       .  A
O192        C204   1.266       .  A
O193        C202   1.277       .  A
O194        C204   1.286       .  A
O195        C203   1.273       .  A
O196       Zn464   2.057       .  S
O196        C205   1.284       .  A
O197        C206   1.283       .  A
O198       Zn463   1.947       .  S
O198        C205   1.271       .  A
O199        C206   1.272       .  A
O200        C207   1.284       .  A
O201        C207   1.264       .  A
C202        C230   1.453       .  S
C203       C1127   1.474       .  S
C204        C458   1.479       .  S
C205        C226   1.446       .  S
C207        C249   1.478       .  S
Zn208       O212   1.900       .  S
Zn208       O213   2.033       .  S
Zn208       O217   2.029       .  S
Zn208       O224   1.996       .  S
Zn209       O212   1.880       .  S
Zn209       O214   2.047       .  S
Zn209       O216   2.000       .  S
Zn209       O220   2.089       .  S
Zn210       O212   1.884       .  S
Zn210       O215   1.984       .  S
Zn210       O218   1.954       .  S
Zn210       O221   1.994       .  S
Zn211       O212   1.877       .  S
Zn211       O219   2.089       .  S
Zn211       O222   1.961       .  S
Zn211       O223   2.020       .  S
O213        C225   1.277       .  A
O214        C226   1.282       .  A
O215        C227   1.274       .  A
O216        C225   1.276       .  A
O217        C227   1.275       .  A
O218        C226   1.271       .  A
O219        C228   1.286       .  A
O220        C229   1.284       .  A
O221        C228   1.267       .  A
O222        C229   1.261       .  A
O223        C230   1.284       .  A
O224        C230   1.274       .  A
C225       C1146   1.465       .  S
C228        C276   1.485       .  S
Zn231       O235   1.916       .  S
Zn231       O236   2.064       .  S
Zn231       O240   1.997       .  S
Zn231       O247   2.056       .  S
Zn232       O235   1.878       .  S
Zn232       O237   1.983       .  S
Zn232       O239   1.961       .  S
Zn232       O243   1.942       .  S
Zn233       O235   1.887       .  S
Zn233       O238   2.022       .  S
Zn233       O241   2.077       .  S
Zn233       O244   1.964       .  S
Zn234       O235   1.888       .  S
Zn234       O242   2.099       .  S
Zn234       O245   2.066       .  S
Zn234       O246   1.997       .  S
O236        C248   1.279       .  A
O237        C249   1.265       .  A
O238        C250   1.284       .  A
O239        C248   1.272       .  A
O240        C250   1.275       .  A
O241        C249   1.285       .  A
O242        C251   1.285       .  A
O243        C252   1.269       .  A
O244        C251   1.263       .  A
O245        C252   1.284       .  A
O246        C253   1.276       .  A
O247        C253   1.280       .  A
C250        C271   1.454       .  S
C252        C274   1.448   1_554  S
C253        C573   1.470   1_545  S
Zn254       O258   1.905       .  S
Zn254       O259   2.023       .  S
Zn254       O263   2.117       .  S
Zn254       O270   1.998       .  S
Zn255       O258   1.916       .  S
Zn255       O260   2.073       .  S
Zn255       O262   2.001       .  S
Zn255       O266   2.086       .  S
Zn256       O258   1.867       .  S
Zn256       O261   1.971       .  S
Zn256       O264   1.982       .  S
Zn256       O267   1.938       .  S
Zn257       O258   1.885       .  S
Zn257       O265   2.070       .  S
Zn257       O268   1.997       .  S
Zn257       O269   2.093       .  S
O259        C271   1.285       .  A
O260        C272   1.280       .  A
O261        C273   1.264       .  A
O262        C271   1.276       .  A
O263        C273   1.289       .  A
O264        C272   1.272       .  A
O265        C550   1.286       .  A
O266        C275   1.283       .  A
O267        C550   1.270       .  A
O268        C275   1.274       .  A
O269        C276   1.285       .  A
O270        C276   1.268       .  A
C272        C597   1.475   1_545  S
C274        O541   1.286       .  A
C274        O543   1.270       .  A
Zn277       O281   1.887       .  S
Zn277       O282   2.097       .  S
Zn277       O286   2.061       .  S
Zn277       O293   2.004       .  S
Zn278       O281   1.895       .  S
Zn278       O283   2.105       .  S
Zn278       O285   1.985       .  S
Zn278       O289   2.027       .  S
Zn279       O281   1.869       .  S
Zn279       O284   1.937       .  S
Zn279       O287   1.982       .  S
Zn279       O290   1.978       .  S
Zn280       O281   1.915       .  S
Zn280       O288   2.058       .  S
Zn280       O291   1.994       .  S
Zn280       O292   2.061       .  S
O282        C294   1.285       .  A
O283        C295   1.288       .  A
O285        C294   1.267       .  A
O287        C295   1.265       .  A
O288        C297   1.278       .  A
O289        C298   1.284       .  A
O290        C297   1.272       .  A
O291        C298   1.275       .  A
O292        C299   1.280       .  A
O293        C299   1.276       .  A
C294        C340   1.482       .  S
C295        C387   1.480       .  S
C296        C320   1.444   1_554  S
C297       C1081   1.470       .  S
C298        C317   1.453       .  S
C299       C1583   1.474   1_455  S
Zn300       O304   1.894       .  S
Zn300       O305   2.026       .  S
Zn300       O309   2.108       .  S
Zn300       O316   1.968       .  S
Zn301       O304   1.908       .  S
Zn301       O306   2.052       .  S
Zn301       O308   1.995       .  S
Zn301       O312   2.060       .  S
Zn302       O304   1.865       .  S
Zn302       O307   1.975       .  S
Zn302       O310   1.967       .  S
Zn302       O313   1.936       .  S
Zn303       O304   1.885       .  S
Zn303       O311   2.061       .  S
Zn303       O314   2.011       .  S
Zn303       O315   2.091       .  S
O305        C317   1.284       .  A
O306        C318   1.278       .  A
O307        C319   1.264       .  A
O308        C317   1.275       .  A
O309        C319   1.288       .  A
O310        C318   1.271       .  A
O311        C320   1.283       .  A
O312        C321   1.281       .  A
O313        C320   1.268       .  A
O314        C321   1.278       .  A
O315        C322   1.284       .  A
O316        C322   1.265       .  A
C318       C1605   1.465   1_455  S
C319        C367   1.481       .  S
C321       C1100   1.476       .  S
C322        C409   1.466       .  S
Zn323       O327   1.883       .  S
Zn323       O328   2.073       .  S
Zn323       O332   1.960       .  S
Zn323       O339   2.007       .  S
Zn324       O327   1.876       .  S
Zn324       O329   1.949       .  S
Zn324       O331   2.004       .  S
Zn324       O335   1.973       .  S
Zn325       O327   1.885       .  S
Zn325       O330   2.118       .  S
Zn325       O333   2.080       .  S
Zn325       O336   1.979       .  S
Zn326       O327   1.914       .  S
Zn326       O334   2.059       .  S
Zn326       O337   2.067       .  S
Zn326       O338   1.995       .  S
O328        C340   1.285       .  A
O329        C341   1.269       .  A
O330        C342   1.287       .  A
O331        C340   1.268       .  A
O332        C342   1.262       .  A
O333        C341   1.288       .  A
O334        C343   1.280       .  A
O335        C344   1.273       .  A
O336        C343   1.274       .  A
O337        C344   1.279       .  A
O338        C345   1.275       .  A
O339        C345   1.283       .  A
C341        C363   1.454       .  S
C342        C410   1.483       .  S
C343        C524   1.468       .  S
C344       C1537   1.471   1_455  S
C345        C366   1.448       .  S
Zn346       O350   1.905       .  S
Zn346       O355   2.086       .  S
Zn346       O362   2.072       .  S
Zn347       O350   1.886       .  S
Zn347       O352   1.958       .  S
Zn347       O358   2.091       .  S
Zn348       O350   1.881       .  S
Zn348       O353   2.002       .  S
Zn348       O356   2.099       .  S
Zn348       O359   2.076       .  S
Zn349       O350   1.860       .  S
Zn349       O357   1.933       .  S
Zn349       O360   1.995       .  S
Zn349       O361   1.971       .  S
O351        C363   1.278       .  A
O352        C364   1.264       .  A
O353        C365   1.276       .  A
O354        C363   1.282       .  A
O355        C365   1.283       .  A
O356        C364   1.285       .  A
O357        C366   1.267       .  A
O358        C367   1.286       .  A
O359        C366   1.286       .  A
O360        C367   1.265       .  A
O361        C368   1.273       .  A
O362        C368   1.280       .  A
C365        C551   1.473       .  S
C368       C1560   1.472   1_455  S
Zn369       O374   2.037       .  S
Zn369       O378   2.002       .  S
Zn369       O385   2.064   1_556  S
Zn370       O373   1.872       .  S
Zn370       O375   1.985       .  S
Zn370       O377   2.005       .  S
Zn370       O381   1.945       .  S
Zn371       O376   2.024       .  S
Zn371       O379   2.099   1_556  S
Zn371       O382   1.969       .  S
Zn372       O373   1.882       .  S
Zn372       O380   2.092       .  S
Zn372       O383   2.060       .  S
Zn372       O384   2.001       .  S
O375        C387   1.265       .  A
O376        C388   1.284       .  A
O377        C386   1.274       .  A
O378        C388   1.276       .  A
O380        C389   1.284       .  A
O381        C390   1.271       .  A
O383        C390   1.285       .  A
O384        C391   1.275       .  A
C386        C731   1.461       .  S
C388        C413   1.454       .  S
C390        C411   1.446       .  S
C391        C482   1.468       .  S
Zn392       O396   1.881       .  S
Zn392       O397   2.096       .  S
Zn392       O401   2.057       .  S
Zn392       O408   2.003       .  S
Zn393       O396   1.877       .  S
Zn393       O398   2.084       .  S
Zn393       O400   1.961       .  S
Zn393       O404   2.028       .  S
Zn394       O396   1.886       .  S
Zn394       O399   1.949       .  S
Zn394       O402   1.995       .  S
Zn394       O405   1.978       .  S
Zn395       O396   1.903       .  S
Zn395       O403   2.032       .  S
Zn395       O406   1.994       .  S
Zn395       O407   2.037       .  S
O397        C409   1.284       .  A
O398        C410   1.287       .  A
O399        C411   1.271       .  A
O400        C409   1.262       .  A
O401        C411   1.284       .  A
O402        C410   1.265       .  A
O403        C412   1.276       .  A
O404        C413   1.284       .  A
O405        C412   1.273       .  A
O406        C413   1.274       .  A
O407        C414   1.278       .  A
O408        C414   1.277       .  A
C412        C503   1.451       .  S
C414        C987   1.467       .  S
Zn415       O419   1.875       .  S
Zn415       O420   1.956       .  S
Zn415       O424   1.996       .  S
Zn415       O431   2.067       .  S
Zn416       O419   1.883       .  S
Zn416       O421   1.989       .  S
Zn416       O423   2.090       .  S
Zn416       O427   2.055       .  S
Zn417       O419   1.905       .  S
Zn417       O422   2.004       .  S
Zn417       O425   2.063       .  S
Zn417       O428   2.063       .  S
Zn418       O419   1.877       .  S
Zn418       O426   1.963       .  S
Zn418       O429   1.942       .  S
Zn418       O430   1.995       .  S
O420        C432   1.261       .  A
O421        C433   1.275       .  A
O422        C434   1.275       .  A
O423        C432   1.283       .  A
O424        C434   1.280       .  A
O425        C433   1.281       .  A
O426        C435   1.272       .  A
O427        C436   1.283       .  A
O428        C435   1.280       .  A
O429        C436   1.268       .  A
O430        C437   1.266       .  A
O431        C437   1.285       .  A
C432        C505   1.463       .  S
C433       C1448   1.471       .  S
C434        C457   1.448       .  S
C435        C966   1.467   1_545  S
C436        C459   1.445       .  S
C437        C527   1.478       .  S
Zn438       O442   1.873       .  S
Zn438       O443   2.009       .  S
Zn438       O447   1.947       .  S
Zn438       O454   2.009       .  S
Zn439       O444   2.053       .  S
Zn439       O446   2.035       .  S
Zn439       O450   1.993       .  S
Zn440       O442   1.880       .  S
Zn440       O445   2.062       .  S
Zn440       O448   1.999       .  S
Zn440       O451   2.100       .  S
Zn441       O449   1.972       .  S
Zn441       O452   2.007       .  S
Zn441       O453   2.084       .  S
O443        C455   1.276       .  A
O445        C457   1.286       .  A
O447        C457   1.270       .  A
O448        C456   1.275       .  A
O450        C459   1.275       .  A
O451        C458   1.286   1_556  A
O452        C459   1.282       .  A
O454        C460   1.268       .  A
C455        C662   1.461   1_546  S
C456       C1472   1.472       .  S
C460        C549   1.481       .  S
Zn461       O465   1.885       .  S
Zn461       O466   2.012       .  S
Zn461       O470   2.078       .  S
Zn461       O477   1.975       .  S
Zn462       O465   1.911       .  S
Zn462       O467   2.073       .  S
Zn462       O469   2.007       .  S
Zn462       O473   2.081       .  S
Zn463       O465   1.882       .  S
Zn463       O468   1.988       .  S
Zn463       O471   1.979       .  S
Zn464       O465   1.886       .  S
Zn464       O475   1.983       .  S
Zn464       O476   2.089       .  S
O466        C478   1.283       .  A
O467        C479   1.280       .  A
O468        C480   1.266       .  A
O469        C478   1.277       .  A
O470        C480   1.286       .  A
O471        C479   1.273       .  A
O472        C481   1.284       .  A
O473        C482   1.283       .  A
O474        C481   1.271       .  A
O475        C482   1.272       .  A
O476        C483   1.284       .  A
O477        C483   1.264       .  A
C478        C506   1.453       .  S
C479       C1403   1.474       .  S
C481        C502   1.446       .  S
C483        C525   1.478       .  S
Zn484       O488   1.900       .  S
Zn484       O489   2.032       .  S
Zn484       O493   2.029       .  S
Zn484       O500   1.996       .  S
Zn485       O488   1.880       .  S
Zn485       O490   2.047       .  S
Zn485       O492   2.000       .  S
Zn485       O496   2.089       .  S
Zn486       O488   1.883       .  S
Zn486       O491   1.984       .  S
Zn486       O494   1.954       .  S
Zn486       O497   1.994       .  S
Zn487       O488   1.877       .  S
Zn487       O495   2.089       .  S
Zn487       O498   1.961       .  S
Zn487       O499   2.020       .  S
O489        C501   1.277       .  A
O490        C502   1.282       .  A
O491        C503   1.274       .  A
O492        C501   1.276       .  A
O493        C503   1.275       .  A
O494        C502   1.271       .  A
O495        C504   1.286       .  A
O496        C505   1.284       .  A
O497        C504   1.267       .  A
O498        C505   1.261       .  A
O499        C506   1.284       .  A
O500        C506   1.274       .  A
C501       C1422   1.465       .  S
C504        C552   1.485       .  S
Zn507       O511   1.916       .  S
Zn507       O512   2.064       .  S
Zn507       O516   1.997       .  S
Zn507       O523   2.056       .  S
Zn508       O511   1.878       .  S
Zn508       O513   1.983       .  S
Zn508       O515   1.961       .  S
Zn508       O519   1.943       .  S
Zn509       O511   1.887       .  S
Zn509       O514   2.022       .  S
Zn509       O517   2.077       .  S
Zn509       O520   1.964       .  S
Zn510       O511   1.888       .  S
Zn510       O518   2.099       .  S
Zn510       O521   2.066       .  S
Zn510       O522   1.997       .  S
O512        C524   1.279       .  A
O513        C525   1.265       .  A
O514        C526   1.284       .  A
O515        C524   1.272       .  A
O516        C526   1.275       .  A
O517        C525   1.286       .  A
O518        C527   1.285       .  A
O519        C528   1.269       .  A
O520        C527   1.263       .  A
O521        C528   1.284       .  A
O522        C529   1.276       .  A
O523        C529   1.280       .  A
C526        C547   1.454       .  S
C528        C550   1.448       .  S
C529        C849   1.470   1_545  S
Zn530       O534   1.905       .  S
Zn530       O535   2.023       .  S
Zn530       O539   2.117       .  S
Zn530       O546   1.998       .  S
Zn531       O534   1.916       .  S
Zn531       O536   2.073       .  S
Zn531       O538   2.001       .  S
Zn531       O542   2.086       .  S
Zn532       O534   1.868       .  S
Zn532       O537   1.971       .  S
Zn532       O540   1.982       .  S
Zn532       O543   1.938       .  S
Zn533       O534   1.885       .  S
Zn533       O541   2.070       .  S
Zn533       O544   1.997       .  S
Zn533       O545   2.093       .  S
O535        C547   1.285       .  A
O536        C548   1.280       .  A
O537        C549   1.264       .  A
O538        C547   1.276       .  A
O539        C549   1.289       .  A
O540        C548   1.272       .  A
O542        C551   1.283       .  A
O544        C551   1.274       .  A
O545        C552   1.285       .  A
O546        C552   1.268       .  A
C548        C873   1.476   1_545  S
Zn553       O557   1.888       .  S
Zn553       O558   2.097       .  S
Zn553       O562   2.061       .  S
Zn553       O569   2.004       .  S
Zn554       O557   1.895       .  S
Zn554       O559   2.105       .  S
Zn554       O561   1.985       .  S
Zn554       O565   2.027       .  S
Zn555       O557   1.869       .  S
Zn555       O560   1.937       .  S
Zn555       O563   1.982       .  S
Zn555       O566   1.978       .  S
Zn556       O557   1.915       .  S
Zn556       O564   2.058       .  S
Zn556       O567   1.994       .  S
Zn556       O568   2.061       .  S
O558        C570   1.285       .  A
O559        C571   1.288       .  A
O560        C848   1.268       .  A
O561        C570   1.267       .  A
O562        C848   1.284       .  A
O563        C571   1.265       .  A
O564        C573   1.278       .  A
O565        C574   1.284       .  A
O566        C573   1.272       .  A
O567        C574   1.275       .  A
O568        C575   1.280       .  A
O569        C575   1.276       .  A
C570        C616   1.482       .  S
C571        C663   1.480       .  S
C572        O836   1.268       .  A
C572        O838   1.284       .  A
C572        C596   1.444       .  S
C574        C593   1.453       .  S
C575       C1859   1.474   1_455  S
Zn576       O580   1.894       .  S
Zn576       O581   2.026       .  S
Zn576       O585   2.107       .  S
Zn576       O592   1.968       .  S
Zn577       O580   1.908       .  S
Zn577       O582   2.052       .  S
Zn577       O584   1.995       .  S
Zn577       O588   2.060       .  S
Zn578       O580   1.865       .  S
Zn578       O583   1.975       .  S
Zn578       O586   1.967       .  S
Zn578       O589   1.936       .  S
Zn579       O580   1.885       .  S
Zn579       O587   2.061       .  S
Zn579       O590   2.011       .  S
Zn579       O591   2.091       .  S
O581        C593   1.284       .  A
O582        C594   1.278       .  A
O583        C595   1.264       .  A
O584        C593   1.275       .  A
O585        C595   1.288       .  A
O586        C594   1.271       .  A
O587        C596   1.283       .  A
O588        C597   1.281       .  A
O589        C596   1.268       .  A
O590        C597   1.278       .  A
O591        C598   1.284       .  A
O592        C598   1.265       .  A
C594       C1881   1.465   1_455  S
C595        C643   1.481       .  S
C598        C685   1.466       .  S
Zn599       O603   1.883       .  S
Zn599       O604   2.073       .  S
Zn599       O608   1.960       .  S
Zn599       O615   2.007       .  S
Zn600       O603   1.876       .  S
Zn600       O605   1.949       .  S
Zn600       O607   2.004       .  S
Zn600       O611   1.973       .  S
Zn601       O603   1.885       .  S
Zn601       O606   2.118       .  S
Zn601       O609   2.080       .  S
Zn601       O612   1.979       .  S
Zn602       O603   1.914       .  S
Zn602       O610   2.059       .  S
Zn602       O613   2.067       .  S
Zn602       O614   1.995       .  S
O604        C616   1.285       .  A
O605        C617   1.269       .  A
O606        C618   1.287       .  A
O607        C616   1.268       .  A
O608        C618   1.262       .  A
O609        C617   1.288       .  A
O610        C619   1.280       .  A
O611        C620   1.273       .  A
O612        C619   1.274       .  A
O613        C620   1.279       .  A
O614        C621   1.275       .  A
O615        C621   1.283       .  A
C617        C639   1.454       .  S
C618        C686   1.483       .  S
C619        C800   1.468       .  S
C620       C1813   1.471   1_455  S
C621        C642   1.448       .  S
Zn622       O626   1.905       .  S
Zn622       O903   2.016       .  S
Zn622       O631   2.086       .  S
Zn622       O638   2.072       .  S
Zn623       O626   1.886       .  S
Zn623       O628   1.958       .  S
Zn623       O906   2.013       .  S
Zn623       O634   2.091       .  S
Zn624       O626   1.881       .  S
Zn624       O629   2.002       .  S
Zn624       O632   2.099       .  S
Zn624       O635   2.076       .  S
Zn625       O626   1.860       .  S
Zn625       O633   1.933       .  S
Zn625       O636   1.995       .  S
Zn625       O637   1.971       .  S
O627       Zn898   2.016   1_554  S
O627        C639   1.278       .  A
O628        C640   1.264       .  A
O629        C641   1.276       .  A
O630       Zn899   2.013   1_554  S
O630        C639   1.282       .  A
O631        C641   1.283       .  A
O632        C640   1.285       .  A
O633        C642   1.267       .  A
O634        C643   1.286       .  A
O635        C642   1.286       .  A
O636        C643   1.265       .  A
O637        C644   1.273       .  A
O638        C644   1.280       .  A
C640        C941   1.467       .  S
C641        C827   1.473       .  S
C644       C1836   1.472   1_455  S
Zn645       O925   1.900       .  S
Zn645       O650   2.037       .  S
Zn645       O654   2.002       .  S
Zn645       O661   2.064       .  S
Zn646       O649   1.872       .  S
Zn646       O651   1.985       .  S
Zn646       O653   2.005       .  S
Zn646       O657   1.945       .  S
Zn647       O925   1.892       .  S
Zn647       O652   2.024       .  S
Zn647       O655   2.099       .  S
Zn647       O658   1.969       .  S
Zn648       O649   1.882       .  S
Zn648       O656   2.092       .  S
Zn648       O659   2.060       .  S
Zn648       O660   2.001       .  S
O649       Zn921   1.900   1_554  S
O649       Zn923   1.892   1_554  S
O650        C938   1.276       .  A
O651        C663   1.265       .  A
O652        C664   1.284       .  A
O653        C662   1.274       .  A
O654        C664   1.276       .  A
O655        C939   1.287       .  A
O656        C665   1.284   1_554  A
O657        C666   1.271       .  A
O658        C941   1.264       .  A
O659        C666   1.285       .  A
O660        C667   1.275       .  A
O661        C943   1.280       .  A
C662        O926   1.276   1_554  A
C663        O931   1.287       .  A
C664        C689   1.454       .  S
C665        O934   1.264       .  A
C665        C916   1.467       .  S
C666        C687   1.446       .  S
C667        O937   1.280       .  A
C667        C758   1.468       .  S
Zn668       O672   1.881       .  S
Zn668       O673   2.096       .  S
Zn668       O677   2.057       .  S
Zn668       O684   2.003       .  S
Zn669       O672   1.877       .  S
Zn669       O674   2.084       .  S
Zn669       O676   1.961       .  S
Zn669       O680   2.028       .  S
Zn670       O672   1.886       .  S
Zn670       O675   1.949       .  S
Zn670       O678   1.995       .  S
Zn670       O681   1.979       .  S
Zn671       O672   1.903       .  S
Zn671       O679   2.032       .  S
Zn671       O682   1.994       .  S
Zn671       O683   2.037       .  S
O673        C685   1.284       .  A
O674        C686   1.287       .  A
O675        C687   1.271       .  A
O676        C685   1.262       .  A
O677        C687   1.284       .  A
O678        C686   1.265       .  A
O679        C688   1.276       .  A
O680        C689   1.284       .  A
O681        C688   1.273       .  A
O682        C689   1.274       .  A
O683        C690   1.278       .  A
O684        C690   1.277       .  A
C688        C779   1.451       .  S
Zn691       O695   1.875       .  S
Zn691       O696   1.956       .  S
Zn691       O700   1.996       .  S
Zn691       O707   2.068       .  S
Zn692       O695   1.883       .  S
Zn692       O697   1.989       .  S
Zn692       O699   2.090       .  S
Zn692       O703   2.055       .  S
Zn693       O695   1.905       .  S
Zn693       O698   2.004       .  S
Zn693       O701   2.063       .  S
Zn693       O704   2.063       .  S
Zn694       O695   1.877       .  S
Zn694       O702   1.963       .  S
Zn694       O705   1.942       .  S
Zn694       O706   1.995       .  S
O696        C708   1.261       .  A
O697        C709   1.275       .  A
O698        C710   1.275       .  A
O699        C708   1.283       .  A
O700        C710   1.280       .  A
O701        C709   1.281       .  A
O702        C711   1.272       .  A
O703        C712   1.283       .  A
O704        C711   1.280       .  A
O705        C712   1.268       .  A
O706        C713   1.266       .  A
O707        C713   1.285       .  A
C708        C781   1.463       .  S
C709       C1724   1.471       .  S
C710        C733   1.448       .  S
C712        C735   1.445       .  S
C713        C803   1.478       .  S
Zn714       O718   1.873       .  S
Zn714       O719   2.009       .  S
Zn714       O723   1.947       .  S
Zn714       O730   2.009       .  S
Zn715       O994   1.902   1_554  S
Zn715       O720   2.053   1_554  S
Zn715       O722   2.035       .  S
Zn715       O726   1.993       .  S
Zn716       O718   1.880       .  S
Zn716       O721   2.062       .  S
Zn716       O724   1.999       .  S
Zn716       O727   2.100       .  S
Zn717       O994   1.886   1_554  S
Zn717       O725   1.972       .  S
Zn717       O728   2.007       .  S
Zn717       O729   2.084   1_554  S
O718       Zn991   1.902       .  S
O718       Zn993   1.886       .  S
O719        C731   1.276       .  A
O720       C1008   1.279       .  A
O721        C733   1.286       .  A
O722       C1007   1.276   1_554  A
O723        C733   1.270       .  A
O724        C732   1.275       .  A
O725       C1010   1.266       .  A
O726        C735   1.275       .  A
O727        C734   1.286       .  A
O728        C735   1.282       .  A
O729       C1012   1.285       .  A
O730        C736   1.268       .  A
C731        O998   1.276       .  A
C732        O996   1.279       .  A
C732       C1748   1.472       .  S
C734       O1001   1.266       .  A
C734       C1032   1.479       .  S
C736       O1005   1.285       .  A
C736        C825   1.481       .  S
Zn737       O741   1.885       .  S
Zn737       O742   2.012       .  S
Zn737       O746   2.078       .  S
Zn737       O753   1.975       .  S
Zn738       O741   1.911       .  S
Zn738       O743   2.073       .  S
Zn738       O745   2.007       .  S
Zn738       O749   2.081       .  S
Zn739       O741   1.882       .  S
Zn739       O744   1.988       .  S
Zn739       O747   1.979       .  S
Zn739      O1026   1.947   1_554  S
Zn740       O741   1.886       .  S
Zn740      O1024   2.057   1_554  S
Zn740       O751   1.983       .  S
Zn740       O752   2.089       .  S
O742        C754   1.283       .  A
O743        C755   1.280       .  A
O744        C756   1.266       .  A
O745        C754   1.277       .  A
O746        C756   1.286       .  A
O747        C755   1.273       .  A
O748      Zn1016   2.057       .  S
O748        C757   1.284       .  A
O749        C758   1.283       .  A
O750      Zn1015   1.947       .  S
O750        C757   1.271       .  A
O751        C758   1.272       .  A
O752        C759   1.284       .  A
O753        C759   1.264       .  A
C754        C782   1.453       .  S
C755       C1679   1.474       .  S
C756       C1010   1.479       .  S
C757        C778   1.446       .  S
C759        C801   1.478       .  S
Zn760       O764   1.900       .  S
Zn760       O765   2.033       .  S
Zn760       O769   2.029       .  S
Zn760       O776   1.996       .  S
Zn761       O764   1.880       .  S
Zn761       O766   2.047       .  S
Zn761       O768   2.000       .  S
Zn761       O772   2.089       .  S
Zn762       O764   1.884       .  S
Zn762       O767   1.984       .  S
Zn762       O770   1.954       .  S
Zn762       O773   1.994       .  S
Zn763       O764   1.877       .  S
Zn763       O771   2.089       .  S
Zn763       O774   1.961       .  S
Zn763       O775   2.020       .  S
O765        C777   1.277       .  A
O766        C778   1.282       .  A
O767        C779   1.274       .  A
O768        C777   1.276       .  A
O769        C779   1.275       .  A
O770        C778   1.271       .  A
O771        C780   1.286       .  A
O772        C781   1.284       .  A
O773        C780   1.267       .  A
O774        C781   1.261       .  A
O775        C782   1.284       .  A
O776        C782   1.274       .  A
C777       C1698   1.465       .  S
C780        C828   1.485       .  S
Zn783       O787   1.916       .  S
Zn783       O788   2.064       .  S
Zn783       O792   1.997       .  S
Zn783       O799   2.056       .  S
Zn784       O787   1.878       .  S
Zn784       O789   1.983       .  S
Zn784       O791   1.961       .  S
Zn784       O795   1.942       .  S
Zn785       O787   1.887       .  S
Zn785       O790   2.022       .  S
Zn785       O793   2.077       .  S
Zn785       O796   1.964       .  S
Zn786       O787   1.888       .  S
Zn786       O794   2.099       .  S
Zn786       O797   2.066       .  S
Zn786       O798   1.997       .  S
O788        C800   1.279       .  A
O789        C801   1.265       .  A
O790        C802   1.284       .  A
O791        C800   1.272       .  A
O792        C802   1.275       .  A
O793        C801   1.285       .  A
O794        C803   1.285       .  A
O795        C804   1.269       .  A
O796        C803   1.263       .  A
O797        C804   1.284       .  A
O798        C805   1.276       .  A
O799        C805   1.280       .  A
C802        C823   1.454       .  S
C804        C826   1.448   1_554  S
Zn806       O810   1.905       .  S
Zn806       O811   2.023       .  S
Zn806       O815   2.117       .  S
Zn806       O822   1.998       .  S
Zn807       O810   1.916       .  S
Zn807       O812   2.073       .  S
Zn807       O814   2.001       .  S
Zn807       O818   2.086       .  S
Zn808       O810   1.867       .  S
Zn808       O813   1.971       .  S
Zn808       O816   1.982       .  S
Zn808       O819   1.938       .  S
Zn809       O810   1.885       .  S
Zn809       O817   2.070       .  S
Zn809       O820   1.997       .  S
Zn809       O821   2.093       .  S
O811        C823   1.285       .  A
O812        C824   1.280       .  A
O813        C825   1.264       .  A
O814        C823   1.276       .  A
O815        C825   1.289       .  A
O816        C824   1.272       .  A
O817       C1102   1.286       .  A
O818        C827   1.283       .  A
O819       C1102   1.270       .  A
O820        C827   1.274       .  A
O821        C828   1.285       .  A
O822        C828   1.268       .  A
C826       O1093   1.286       .  A
C826       O1095   1.270       .  A
Zn829       O833   1.887       .  S
Zn829       O834   2.097       .  S
Zn829       O838   2.061       .  S
Zn829       O845   2.004       .  S
Zn830       O833   1.895       .  S
Zn830       O835   2.105       .  S
Zn830       O837   1.985       .  S
Zn830       O841   2.027       .  S
Zn831       O833   1.869       .  S
Zn831       O836   1.937       .  S
Zn831       O839   1.982       .  S
Zn831       O842   1.978       .  S
Zn832       O833   1.915       .  S
Zn832       O840   2.058       .  S
Zn832       O843   1.994       .  S
Zn832       O844   2.061       .  S
O834        C846   1.285       .  A
O835        C847   1.288       .  A
O837        C846   1.267       .  A
O839        C847   1.265       .  A
O840        C849   1.278       .  A
O841        C850   1.284       .  A
O842        C849   1.272       .  A
O843        C850   1.275       .  A
O844        C851   1.280       .  A
O845        C851   1.276       .  A
C846        C892   1.482       .  S
C847        C939   1.480       .  S
C848        C872   1.444   1_554  S
C850        C869   1.453       .  S
C851       C2135   1.474   1_455  S
Zn852       O856   1.894       .  S
Zn852       O857   2.026       .  S
Zn852       O861   2.108       .  S
Zn852       O868   1.968       .  S
Zn853       O856   1.908       .  S
Zn853       O858   2.052       .  S
Zn853       O860   1.995       .  S
Zn853       O864   2.060       .  S
Zn854       O856   1.865       .  S
Zn854       O859   1.975       .  S
Zn854       O862   1.967       .  S
Zn854       O865   1.936       .  S
Zn855       O856   1.885       .  S
Zn855       O863   2.061       .  S
Zn855       O866   2.011       .  S
Zn855       O867   2.091       .  S
O857        C869   1.284       .  A
O858        C870   1.278       .  A
O859        C871   1.264       .  A
O860        C869   1.275       .  A
O861        C871   1.288       .  A
O862        C870   1.271       .  A
O863        C872   1.283       .  A
O864        C873   1.281       .  A
O865        C872   1.268       .  A
O866        C873   1.278       .  A
O867        C874   1.284       .  A
O868        C874   1.265       .  A
C870       C2157   1.465   1_455  S
C871        C919   1.481       .  S
C874        C961   1.466       .  S
Zn875       O879   1.883       .  S
Zn875       O880   2.073       .  S
Zn875       O884   1.960       .  S
Zn875       O891   2.007       .  S
Zn876       O879   1.876       .  S
Zn876       O881   1.949       .  S
Zn876       O883   2.004       .  S
Zn876       O887   1.973       .  S
Zn877       O879   1.885       .  S
Zn877       O882   2.118       .  S
Zn877       O885   2.080       .  S
Zn877       O888   1.979       .  S
Zn878       O879   1.914       .  S
Zn878       O886   2.059       .  S
Zn878       O889   2.067       .  S
Zn878       O890   1.995       .  S
O880        C892   1.285       .  A
O881        C893   1.269       .  A
O882        C894   1.287       .  A
O883        C892   1.268       .  A
O884        C894   1.262       .  A
O885        C893   1.288       .  A
O886        C895   1.280       .  A
O887        C896   1.273       .  A
O888        C895   1.274       .  A
O889        C896   1.279       .  A
O890        C897   1.275       .  A
O891        C897   1.283       .  A
C893        C915   1.454       .  S
C894        C962   1.483       .  S
C895       C1076   1.468       .  S
C896       C2089   1.471   1_455  S
C897        C918   1.448       .  S
Zn898       O902   1.905       .  S
Zn898       O907   2.086       .  S
Zn898       O914   2.072       .  S
Zn899       O902   1.886       .  S
Zn899       O904   1.958       .  S
Zn899       O910   2.091       .  S
Zn900       O902   1.881       .  S
Zn900       O905   2.002       .  S
Zn900       O908   2.099       .  S
Zn900       O911   2.076       .  S
Zn901       O902   1.860       .  S
Zn901       O909   1.933       .  S
Zn901       O912   1.995       .  S
Zn901       O913   1.971       .  S
O903        C915   1.278       .  A
O904        C916   1.264       .  A
O905        C917   1.276       .  A
O906        C915   1.282       .  A
O907        C917   1.283       .  A
O908        C916   1.285       .  A
O909        C918   1.267       .  A
O910        C919   1.286       .  A
O911        C918   1.286       .  A
O912        C919   1.265       .  A
O913        C920   1.273       .  A
O914        C920   1.280       .  A
C917       C1103   1.473       .  S
C920       C2112   1.472   1_455  S
Zn921       O926   2.037       .  S
Zn921       O930   2.002       .  S
Zn921       O937   2.064   1_556  S
Zn922       O925   1.872       .  S
Zn922       O927   1.985       .  S
Zn922       O929   2.005       .  S
Zn922       O933   1.945       .  S
Zn923       O928   2.024       .  S
Zn923       O931   2.099   1_556  S
Zn923       O934   1.969       .  S
Zn924       O925   1.882       .  S
Zn924       O932   2.092       .  S
Zn924       O935   2.060       .  S
Zn924       O936   2.001       .  S
O927        C939   1.265       .  A
O928        C940   1.284       .  A
O929        C938   1.274       .  A
O930        C940   1.276       .  A
O932        C941   1.284       .  A
O933        C942   1.271       .  A
O935        C942   1.285       .  A
O936        C943   1.275       .  A
C940        C965   1.454       .  S
C942        C963   1.446       .  S
C943       C1034   1.468       .  S
Zn944       O948   1.881       .  S
Zn944       O949   2.096       .  S
Zn944       O953   2.057       .  S
Zn944       O960   2.003       .  S
Zn945       O948   1.877       .  S
Zn945       O950   2.084       .  S
Zn945       O952   1.961       .  S
Zn945       O956   2.028       .  S
Zn946       O948   1.886       .  S
Zn946       O951   1.949       .  S
Zn946       O954   1.995       .  S
Zn946       O957   1.978       .  S
Zn947       O948   1.903       .  S
Zn947       O955   2.032       .  S
Zn947       O958   1.994       .  S
Zn947       O959   2.037       .  S
O949        C961   1.284       .  A
O950        C962   1.287       .  A
O951        C963   1.271       .  A
O952        C961   1.262       .  A
O953        C963   1.284       .  A
O954        C962   1.265       .  A
O955        C964   1.276       .  A
O956        C965   1.284       .  A
O957        C964   1.273       .  A
O958        C965   1.274       .  A
O959        C966   1.278       .  A
O960        C966   1.277       .  A
C964       C1055   1.451       .  S
Zn967       O971   1.875       .  S
Zn967       O972   1.956       .  S
Zn967       O976   1.996       .  S
Zn967       O983   2.067       .  S
Zn968       O971   1.883       .  S
Zn968       O973   1.989       .  S
Zn968       O975   2.090       .  S
Zn968       O979   2.055       .  S
Zn969       O971   1.905       .  S
Zn969       O974   2.004       .  S
Zn969       O977   2.063       .  S
Zn969       O980   2.063       .  S
Zn970       O971   1.877       .  S
Zn970       O978   1.963       .  S
Zn970       O981   1.942       .  S
Zn970       O982   1.995       .  S
O972        C984   1.261       .  A
O973        C985   1.275       .  A
O974        C986   1.275       .  A
O975        C984   1.283       .  A
O976        C986   1.280       .  A
O977        C985   1.281       .  A
O978        C987   1.272       .  A
O979        C988   1.283       .  A
O980        C987   1.280       .  A
O981        C988   1.268       .  A
O982        C989   1.266       .  A
O983        C989   1.285       .  A
C984       C1057   1.463       .  S
C985       C2000   1.471       .  S
C986       C1009   1.448       .  S
C988       C1011   1.445       .  S
C989       C1079   1.478       .  S
Zn990       O994   1.873       .  S
Zn990       O995   2.009       .  S
Zn990       O999   1.947       .  S
Zn990      O1006   2.009       .  S
Zn991       O996   2.053       .  S
Zn991       O998   2.035       .  S
Zn991      O1002   1.993       .  S
Zn992       O994   1.880       .  S
Zn992       O997   2.062       .  S
Zn992      O1000   1.999       .  S
Zn992      O1003   2.100       .  S
Zn993      O1001   1.972       .  S
Zn993      O1004   2.007       .  S
Zn993      O1005   2.084       .  S
O995       C1007   1.276       .  A
O997       C1009   1.286       .  A
O999       C1009   1.270       .  A
O1000      C1008   1.275       .  A
O1002      C1011   1.275       .  A
O1003      C1010   1.286   1_556  A
O1004      C1011   1.282       .  A
O1006      C1012   1.268       .  A
C1008      C2024   1.472       .  S
C1012      C1101   1.481       .  S
Zn1013     O1017   1.885       .  S
Zn1013     O1018   2.012       .  S
Zn1013     O1022   2.078       .  S
Zn1013     O1029   1.975       .  S
Zn1014     O1017   1.911       .  S
Zn1014     O1019   2.073       .  S
Zn1014     O1021   2.007       .  S
Zn1014     O1025   2.081       .  S
Zn1015     O1017   1.882       .  S
Zn1015     O1020   1.988       .  S
Zn1015     O1023   1.979       .  S
Zn1016     O1017   1.886       .  S
Zn1016     O1027   1.983       .  S
Zn1016     O1028   2.089       .  S
O1018      C1030   1.283       .  A
O1019      C1031   1.280       .  A
O1020      C1032   1.266       .  A
O1021      C1030   1.277       .  A
O1022      C1032   1.286       .  A
O1023      C1031   1.273       .  A
O1024      C1033   1.284       .  A
O1025      C1034   1.283       .  A
O1026      C1033   1.271       .  A
O1027      C1034   1.272       .  A
O1028      C1035   1.284       .  A
O1029      C1035   1.264       .  A
C1030      C1058   1.453       .  S
C1031      C1955   1.474       .  S
C1033      C1054   1.446       .  S
C1035      C1077   1.478       .  S
Zn1036     O1040   1.900       .  S
Zn1036     O1041   2.032       .  S
Zn1036     O1045   2.029       .  S
Zn1036     O1052   1.996       .  S
Zn1037     O1040   1.880       .  S
Zn1037     O1042   2.047       .  S
Zn1037     O1044   2.000       .  S
Zn1037     O1048   2.089       .  S
Zn1038     O1040   1.883       .  S
Zn1038     O1043   1.984       .  S
Zn1038     O1046   1.954       .  S
Zn1038     O1049   1.994       .  S
Zn1039     O1040   1.877       .  S
Zn1039     O1047   2.089       .  S
Zn1039     O1050   1.961       .  S
Zn1039     O1051   2.020       .  S
O1041      C1053   1.277       .  A
O1042      C1054   1.282       .  A
O1043      C1055   1.274       .  A
O1044      C1053   1.276       .  A
O1045      C1055   1.275       .  A
O1046      C1054   1.271       .  A
O1047      C1056   1.286       .  A
O1048      C1057   1.284       .  A
O1049      C1056   1.267       .  A
O1050      C1057   1.261       .  A
O1051      C1058   1.284       .  A
O1052      C1058   1.274       .  A
C1053      C1974   1.465       .  S
C1056      C1104   1.485       .  S
Zn1059     O1063   1.916       .  S
Zn1059     O1064   2.064       .  S
Zn1059     O1068   1.997       .  S
Zn1059     O1075   2.056       .  S
Zn1060     O1063   1.878       .  S
Zn1060     O1065   1.983       .  S
Zn1060     O1067   1.961       .  S
Zn1060     O1071   1.943       .  S
Zn1061     O1063   1.887       .  S
Zn1061     O1066   2.022       .  S
Zn1061     O1069   2.077       .  S
Zn1061     O1072   1.964       .  S
Zn1062     O1063   1.888       .  S
Zn1062     O1070   2.099       .  S
Zn1062     O1073   2.066       .  S
Zn1062     O1074   1.997       .  S
O1064      C1076   1.279       .  A
O1065      C1077   1.265       .  A
O1066      C1078   1.284       .  A
O1067      C1076   1.272       .  A
O1068      C1078   1.275       .  A
O1069      C1077   1.286       .  A
O1070      C1079   1.285       .  A
O1071      C1080   1.269       .  A
O1072      C1079   1.263       .  A
O1073      C1080   1.284       .  A
O1074      C1081   1.276       .  A
O1075      C1081   1.280       .  A
C1078      C1099   1.454       .  S
C1080      C1102   1.448       .  S
Zn1082     O1086   1.905       .  S
Zn1082     O1087   2.023       .  S
Zn1082     O1091   2.117       .  S
Zn1082     O1098   1.998       .  S
Zn1083     O1086   1.916       .  S
Zn1083     O1088   2.073       .  S
Zn1083     O1090   2.001       .  S
Zn1083     O1094   2.086       .  S
Zn1084     O1086   1.868       .  S
Zn1084     O1089   1.971       .  S
Zn1084     O1092   1.982       .  S
Zn1084     O1095   1.938       .  S
Zn1085     O1086   1.885       .  S
Zn1085     O1093   2.070       .  S
Zn1085     O1096   1.997       .  S
Zn1085     O1097   2.093       .  S
O1087      C1099   1.285       .  A
O1088      C1100   1.280       .  A
O1089      C1101   1.264       .  A
O1090      C1099   1.276       .  A
O1091      C1101   1.289       .  A
O1092      C1100   1.272       .  A
O1094      C1103   1.283       .  A
O1096      C1103   1.274       .  A
O1097      C1104   1.285       .  A
O1098      C1104   1.268       .  A
Zn1105     O1109   1.888       .  S
Zn1105     O1110   2.097       .  S
Zn1105     O1114   2.061       .  S
Zn1105     O1121   2.004       .  S
Zn1106     O1109   1.895       .  S
Zn1106     O1111   2.105       .  S
Zn1106     O1113   1.985       .  S
Zn1106     O1117   2.027       .  S
Zn1107     O1109   1.869       .  S
Zn1107     O1112   1.937       .  S
Zn1107     O1115   1.982       .  S
Zn1107     O1118   1.978       .  S
Zn1108     O1109   1.915       .  S
Zn1108     O1116   2.058       .  S
Zn1108     O1119   1.994       .  S
Zn1108     O1120   2.061       .  S
O1110      C1122   1.285       .  A
O1111      C1123   1.288       .  A
O1112      C1400   1.268       .  A
O1113      C1122   1.267       .  A
O1114      C1400   1.284       .  A
O1115      C1123   1.265       .  A
O1116      C1125   1.278       .  A
O1117      C1126   1.284       .  A
O1118      C1125   1.272       .  A
O1119      C1126   1.275       .  A
O1120      C1127   1.280       .  A
O1121      C1127   1.276       .  A
C1122      C1168   1.482       .  S
C1123      C1215   1.480       .  S
C1124      O1388   1.268       .  A
C1124      O1390   1.284       .  A
C1124      C1148   1.444       .  S
C1125      C1909   1.470       .  S
C1126      C1145   1.453       .  S
Zn1128     O1132   1.894       .  S
Zn1128     O1133   2.026       .  S
Zn1128     O1137   2.107       .  S
Zn1128     O1144   1.968       .  S
Zn1129     O1132   1.908       .  S
Zn1129     O1134   2.052       .  S
Zn1129     O1136   1.995       .  S
Zn1129     O1140   2.060       .  S
Zn1130     O1132   1.865       .  S
Zn1130     O1135   1.975       .  S
Zn1130     O1138   1.967       .  S
Zn1130     O1141   1.936       .  S
Zn1131     O1132   1.885       .  S
Zn1131     O1139   2.061       .  S
Zn1131     O1142   2.011       .  S
Zn1131     O1143   2.091       .  S
O1133      C1145   1.284       .  A
O1134      C1146   1.278       .  A
O1135      C1147   1.264       .  A
O1136      C1145   1.275       .  A
O1137      C1147   1.288       .  A
O1138      C1146   1.271       .  A
O1139      C1148   1.283       .  A
O1140      C1149   1.281       .  A
O1141      C1148   1.268       .  A
O1142      C1149   1.278       .  A
O1143      C1150   1.284       .  A
O1144      C1150   1.265       .  A
C1147      C1195   1.481       .  S
C1149      C1928   1.475       .  S
C1150      C1237   1.466       .  S
Zn1151     O1155   1.883       .  S
Zn1151     O1156   2.073       .  S
Zn1151     O1160   1.960       .  S
Zn1151     O1167   2.007       .  S
Zn1152     O1155   1.876       .  S
Zn1152     O1157   1.949       .  S
Zn1152     O1159   2.004       .  S
Zn1152     O1163   1.973       .  S
Zn1153     O1155   1.885       .  S
Zn1153     O1158   2.118       .  S
Zn1153     O1161   2.080       .  S
Zn1153     O1164   1.979       .  S
Zn1154     O1155   1.914       .  S
Zn1154     O1162   2.059       .  S
Zn1154     O1165   2.067       .  S
Zn1154     O1166   1.995       .  S
O1156      C1168   1.285       .  A
O1157      C1169   1.269       .  A
O1158      C1170   1.287       .  A
O1159      C1168   1.268       .  A
O1160      C1170   1.262       .  A
O1161      C1169   1.288       .  A
O1162      C1171   1.280       .  A
O1163      C1172   1.273       .  A
O1164      C1171   1.274       .  A
O1165      C1172   1.279       .  A
O1166      C1173   1.275       .  A
O1167      C1173   1.283       .  A
C1169      C1191   1.454       .  S
C1170      C1238   1.483       .  S
C1171      C1352   1.468       .  S
C1173      C1194   1.448       .  S
Zn1174     O1178   1.905       .  S
Zn1174     O1455   2.016       .  S
Zn1174     O1183   2.086       .  S
Zn1174     O1190   2.072       .  S
Zn1175     O1178   1.886       .  S
Zn1175     O1180   1.958       .  S
Zn1175     O1458   2.013       .  S
Zn1175     O1186   2.091       .  S
Zn1176     O1178   1.881       .  S
Zn1176     O1181   2.002       .  S
Zn1176     O1184   2.099       .  S
Zn1176     O1187   2.076       .  S
Zn1177     O1178   1.860       .  S
Zn1177     O1185   1.933       .  S
Zn1177     O1188   1.995       .  S
Zn1177     O1189   1.971       .  S
O1179     Zn1450   2.016   1_554  S
O1179      C1191   1.278       .  A
O1180      C1192   1.264       .  A
O1181      C1193   1.276       .  A
O1182     Zn1451   2.013   1_554  S
O1182      C1191   1.282       .  A
O1183      C1193   1.283       .  A
O1184      C1192   1.285       .  A
O1185      C1194   1.267       .  A
O1186      C1195   1.286       .  A
O1187      C1194   1.286       .  A
O1188      C1195   1.265       .  A
O1189      C1196   1.273       .  A
O1190      C1196   1.280       .  A
C1192      C1493   1.467       .  S
C1193      C1379   1.473       .  S
Zn1197     O1477   1.900       .  S
Zn1197     O1202   2.037       .  S
Zn1197     O1206   2.002       .  S
Zn1197     O1213   2.064       .  S
Zn1198     O1201   1.872       .  S
Zn1198     O1203   1.985       .  S
Zn1198     O1205   2.005       .  S
Zn1198     O1209   1.945       .  S
Zn1199     O1477   1.892       .  S
Zn1199     O1204   2.024       .  S
Zn1199     O1207   2.099       .  S
Zn1199     O1210   1.969       .  S
Zn1200     O1201   1.882       .  S
Zn1200     O1208   2.092       .  S
Zn1200     O1211   2.060       .  S
Zn1200     O1212   2.001       .  S
O1201     Zn1473   1.900   1_554  S
O1201     Zn1475   1.892   1_554  S
O1202      C1490   1.276       .  A
O1203      C1215   1.265       .  A
O1204      C1216   1.284       .  A
O1205      C1214   1.274       .  A
O1206      C1216   1.276       .  A
O1207      C1491   1.287       .  A
O1208      C1217   1.284   1_554  A
O1209      C1218   1.271       .  A
O1210      C1493   1.264       .  A
O1211      C1218   1.285       .  A
O1212      C1219   1.275       .  A
O1213      C1495   1.280       .  A
C1214      O1478   1.276   1_554  A
C1214      C2111   1.461   1_554  S
C1215      O1483   1.287       .  A
C1216      C1241   1.454       .  S
C1217      O1486   1.264       .  A
C1217      C1468   1.467       .  S
C1218      C1239   1.446       .  S
C1219      O1489   1.280       .  A
C1219      C1310   1.468       .  S
Zn1220     O1224   1.881       .  S
Zn1220     O1225   2.096       .  S
Zn1220     O1229   2.057       .  S
Zn1220     O1236   2.003       .  S
Zn1221     O1224   1.877       .  S
Zn1221     O1226   2.084       .  S
Zn1221     O1228   1.961       .  S
Zn1221     O1232   2.028       .  S
Zn1222     O1224   1.886       .  S
Zn1222     O1227   1.949       .  S
Zn1222     O1230   1.995       .  S
Zn1222     O1233   1.979       .  S
Zn1223     O1224   1.903       .  S
Zn1223     O1231   2.032       .  S
Zn1223     O1234   1.994       .  S
Zn1223     O1235   2.037       .  S
O1225      C1237   1.284       .  A
O1226      C1238   1.287       .  A
O1227      C1239   1.271       .  A
O1228      C1237   1.262       .  A
O1229      C1239   1.284       .  A
O1230      C1238   1.265       .  A
O1231      C1240   1.276       .  A
O1232      C1241   1.284       .  A
O1233      C1240   1.273       .  A
O1234      C1241   1.274       .  A
O1235      C1242   1.278       .  A
O1236      C1242   1.277       .  A
C1240      C1331   1.451       .  S
C1242      C1815   1.467       .  S
Zn1243     O1247   1.875       .  S
Zn1243     O1248   1.956       .  S
Zn1243     O1252   1.996       .  S
Zn1243     O1259   2.068       .  S
Zn1244     O1247   1.883       .  S
Zn1244     O1249   1.989       .  S
Zn1244     O1251   2.090       .  S
Zn1244     O1255   2.055       .  S
Zn1245     O1247   1.905       .  S
Zn1245     O1250   2.004       .  S
Zn1245     O1253   2.063       .  S
Zn1245     O1256   2.063       .  S
Zn1246     O1247   1.877       .  S
Zn1246     O1254   1.963       .  S
Zn1246     O1257   1.942       .  S
Zn1246     O1258   1.995       .  S
O1248      C1260   1.261       .  A
O1249      C1261   1.275       .  A
O1250      C1262   1.275       .  A
O1251      C1260   1.283       .  A
O1252      C1262   1.280       .  A
O1253      C1261   1.281       .  A
O1254      C1263   1.272       .  A
O1255      C1264   1.283       .  A
O1256      C1263   1.280       .  A
O1257      C1264   1.268       .  A
O1258      C1265   1.266       .  A
O1259      C1265   1.285       .  A
C1260      C1333   1.463       .  S
C1262      C1285   1.448       .  S
C1263      C1794   1.467   1_545  S
C1264      C1287   1.445       .  S
C1265      C1355   1.478       .  S
Zn1266     O1270   1.873       .  S
Zn1266     O1271   2.009       .  S
Zn1266     O1275   1.947       .  S
Zn1266     O1282   2.009       .  S
Zn1267     O1546   1.902   1_554  S
Zn1267     O1272   2.053   1_554  S
Zn1267     O1274   2.035       .  S
Zn1267     O1278   1.993       .  S
Zn1268     O1270   1.880       .  S
Zn1268     O1273   2.062       .  S
Zn1268     O1276   1.999       .  S
Zn1268     O1279   2.100       .  S
Zn1269     O1546   1.886   1_554  S
Zn1269     O1277   1.972       .  S
Zn1269     O1280   2.007       .  S
Zn1269     O1281   2.084   1_554  S
O1270     Zn1543   1.902       .  S
O1270     Zn1545   1.886       .  S
O1271      C1283   1.276       .  A
O1272      C1560   1.279       .  A
O1273      C1285   1.286       .  A
O1274      C1559   1.276   1_554  A
O1275      C1285   1.270       .  A
O1276      C1284   1.275       .  A
O1277      C1562   1.266       .  A
O1278      C1287   1.275       .  A
O1279      C1286   1.286       .  A
O1280      C1287   1.282       .  A
O1281      C1564   1.285       .  A
O1282      C1288   1.268       .  A
C1283      O1550   1.276       .  A
C1283      C2042   1.461   1_545  S
C1284      O1548   1.279       .  A
C1286      O1553   1.266       .  A
C1286      C1584   1.479       .  S
C1288      O1557   1.285       .  A
C1288      C1377   1.481       .  S
Zn1289     O1293   1.885       .  S
Zn1289     O1294   2.012       .  S
Zn1289     O1298   2.078       .  S
Zn1289     O1305   1.975       .  S
Zn1290     O1293   1.911       .  S
Zn1290     O1295   2.073       .  S
Zn1290     O1297   2.007       .  S
Zn1290     O1301   2.081       .  S
Zn1291     O1293   1.882       .  S
Zn1291     O1296   1.988       .  S
Zn1291     O1299   1.979       .  S
Zn1291     O1578   1.947   1_554  S
Zn1292     O1293   1.886       .  S
Zn1292     O1576   2.057   1_554  S
Zn1292     O1303   1.983       .  S
Zn1292     O1304   2.089       .  S
O1294      C1306   1.283       .  A
O1295      C1307   1.280       .  A
O1296      C1308   1.266       .  A
O1297      C1306   1.277       .  A
O1298      C1308   1.286       .  A
O1299      C1307   1.273       .  A
O1300     Zn1568   2.057       .  S
O1300      C1309   1.284       .  A
O1301      C1310   1.283       .  A
O1302     Zn1567   1.947       .  S
O1302      C1309   1.271       .  A
O1303      C1310   1.272       .  A
O1304      C1311   1.284       .  A
O1305      C1311   1.264       .  A
C1306      C1334   1.453       .  S
C1308      C1562   1.479       .  S
C1309      C1330   1.446       .  S
C1311      C1353   1.478       .  S
Zn1312     O1316   1.900       .  S
Zn1312     O1317   2.033       .  S
Zn1312     O1321   2.029       .  S
Zn1312     O1328   1.996       .  S
Zn1313     O1316   1.880       .  S
Zn1313     O1318   2.047       .  S
Zn1313     O1320   2.000       .  S
Zn1313     O1324   2.089       .  S
Zn1314     O1316   1.884       .  S
Zn1314     O1319   1.984       .  S
Zn1314     O1322   1.954       .  S
Zn1314     O1325   1.994       .  S
Zn1315     O1316   1.877       .  S
Zn1315     O1323   2.089       .  S
Zn1315     O1326   1.961       .  S
Zn1315     O1327   2.020       .  S
O1317      C1329   1.277       .  A
O1318      C1330   1.282       .  A
O1319      C1331   1.274       .  A
O1320      C1329   1.276       .  A
O1321      C1331   1.275       .  A
O1322      C1330   1.271       .  A
O1323      C1332   1.286       .  A
O1324      C1333   1.284       .  A
O1325      C1332   1.267       .  A
O1326      C1333   1.261       .  A
O1327      C1334   1.284       .  A
O1328      C1334   1.274       .  A
C1332      C1380   1.485       .  S
Zn1335     O1339   1.916       .  S
Zn1335     O1340   2.064       .  S
Zn1335     O1344   1.997       .  S
Zn1335     O1351   2.056       .  S
Zn1336     O1339   1.878       .  S
Zn1336     O1341   1.983       .  S
Zn1336     O1343   1.961       .  S
Zn1336     O1347   1.942       .  S
Zn1337     O1339   1.887       .  S
Zn1337     O1342   2.022       .  S
Zn1337     O1345   2.077       .  S
Zn1337     O1348   1.964       .  S
Zn1338     O1339   1.888       .  S
Zn1338     O1346   2.099       .  S
Zn1338     O1349   2.066       .  S
Zn1338     O1350   1.997       .  S
O1340      C1352   1.279       .  A
O1341      C1353   1.265       .  A
O1342      C1354   1.284       .  A
O1343      C1352   1.272       .  A
O1344      C1354   1.275       .  A
O1345      C1353   1.285       .  A
O1346      C1355   1.285       .  A
O1347      C1356   1.269       .  A
O1348      C1355   1.263       .  A
O1349      C1356   1.284       .  A
O1350      C1357   1.276       .  A
O1351      C1357   1.280       .  A
C1354      C1375   1.454       .  S
C1356      C1378   1.448   1_554  S
C1357      C1677   1.470   1_545  S
Zn1358     O1362   1.905       .  S
Zn1358     O1363   2.023       .  S
Zn1358     O1367   2.117       .  S
Zn1358     O1374   1.998       .  S
Zn1359     O1362   1.916       .  S
Zn1359     O1364   2.073       .  S
Zn1359     O1366   2.001       .  S
Zn1359     O1370   2.086       .  S
Zn1360     O1362   1.867       .  S
Zn1360     O1365   1.971       .  S
Zn1360     O1368   1.982       .  S
Zn1360     O1371   1.938       .  S
Zn1361     O1362   1.885       .  S
Zn1361     O1369   2.070       .  S
Zn1361     O1372   1.997       .  S
Zn1361     O1373   2.093       .  S
O1363      C1375   1.285       .  A
O1364      C1376   1.280       .  A
O1365      C1377   1.264       .  A
O1366      C1375   1.276       .  A
O1367      C1377   1.289       .  A
O1368      C1376   1.272       .  A
O1369      C1654   1.286       .  A
O1370      C1379   1.283       .  A
O1371      C1654   1.270       .  A
O1372      C1379   1.274       .  A
O1373      C1380   1.285       .  A
O1374      C1380   1.268       .  A
C1376      C1701   1.475   1_545  S
C1378      O1645   1.286       .  A
C1378      O1647   1.270       .  A
Zn1381     O1385   1.887       .  S
Zn1381     O1386   2.097       .  S
Zn1381     O1390   2.061       .  S
Zn1381     O1397   2.004       .  S
Zn1382     O1385   1.895       .  S
Zn1382     O1387   2.105       .  S
Zn1382     O1389   1.985       .  S
Zn1382     O1393   2.027       .  S
Zn1383     O1385   1.869       .  S
Zn1383     O1388   1.937       .  S
Zn1383     O1391   1.982       .  S
Zn1383     O1394   1.978       .  S
Zn1384     O1385   1.915       .  S
Zn1384     O1392   2.058       .  S
Zn1384     O1395   1.994       .  S
Zn1384     O1396   2.061       .  S
O1386      C1398   1.285       .  A
O1387      C1399   1.288       .  A
O1389      C1398   1.267       .  A
O1391      C1399   1.265       .  A
O1392      C1401   1.278       .  A
O1393      C1402   1.284       .  A
O1394      C1401   1.272       .  A
O1395      C1402   1.275       .  A
O1396      C1403   1.280       .  A
O1397      C1403   1.276       .  A
C1398      C1444   1.482       .  S
C1399      C1491   1.480       .  S
C1400      C1424   1.444   1_554  S
C1401      C2185   1.470       .  S
C1402      C1421   1.453       .  S
Zn1404     O1408   1.894       .  S
Zn1404     O1409   2.026       .  S
Zn1404     O1413   2.108       .  S
Zn1404     O1420   1.968       .  S
Zn1405     O1408   1.908       .  S
Zn1405     O1410   2.052       .  S
Zn1405     O1412   1.995       .  S
Zn1405     O1416   2.060       .  S
Zn1406     O1408   1.865       .  S
Zn1406     O1411   1.975       .  S
Zn1406     O1414   1.967       .  S
Zn1406     O1417   1.936       .  S
Zn1407     O1408   1.885       .  S
Zn1407     O1415   2.061       .  S
Zn1407     O1418   2.011       .  S
Zn1407     O1419   2.091       .  S
O1409      C1421   1.284       .  A
O1410      C1422   1.278       .  A
O1411      C1423   1.264       .  A
O1412      C1421   1.275       .  A
O1413      C1423   1.288       .  A
O1414      C1422   1.271       .  A
O1415      C1424   1.283       .  A
O1416      C1425   1.281       .  A
O1417      C1424   1.268       .  A
O1418      C1425   1.278       .  A
O1419      C1426   1.284       .  A
O1420      C1426   1.265       .  A
C1423      C1471   1.481       .  S
C1425      C2204   1.476       .  S
C1426      C1513   1.466       .  S
Zn1427     O1431   1.883       .  S
Zn1427     O1432   2.073       .  S
Zn1427     O1436   1.960       .  S
Zn1427     O1443   2.007       .  S
Zn1428     O1431   1.876       .  S
Zn1428     O1433   1.949       .  S
Zn1428     O1435   2.004       .  S
Zn1428     O1439   1.973       .  S
Zn1429     O1431   1.885       .  S
Zn1429     O1434   2.118       .  S
Zn1429     O1437   2.080       .  S
Zn1429     O1440   1.979       .  S
Zn1430     O1431   1.914       .  S
Zn1430     O1438   2.059       .  S
Zn1430     O1441   2.067       .  S
Zn1430     O1442   1.995       .  S
O1432      C1444   1.285       .  A
O1433      C1445   1.269       .  A
O1434      C1446   1.287       .  A
O1435      C1444   1.268       .  A
O1436      C1446   1.262       .  A
O1437      C1445   1.288       .  A
O1438      C1447   1.280       .  A
O1439      C1448   1.273       .  A
O1440      C1447   1.274       .  A
O1441      C1448   1.279       .  A
O1442      C1449   1.275       .  A
O1443      C1449   1.283       .  A
C1445      C1467   1.454       .  S
C1446      C1514   1.483       .  S
C1447      C1628   1.468       .  S
C1449      C1470   1.448       .  S
Zn1450     O1454   1.905       .  S
Zn1450     O1459   2.086       .  S
Zn1450     O1466   2.072       .  S
Zn1451     O1454   1.886       .  S
Zn1451     O1456   1.958       .  S
Zn1451     O1462   2.091       .  S
Zn1452     O1454   1.881       .  S
Zn1452     O1457   2.002       .  S
Zn1452     O1460   2.099       .  S
Zn1452     O1463   2.076       .  S
Zn1453     O1454   1.860       .  S
Zn1453     O1461   1.933       .  S
Zn1453     O1464   1.995       .  S
Zn1453     O1465   1.971       .  S
O1455      C1467   1.278       .  A
O1456      C1468   1.264       .  A
O1457      C1469   1.276       .  A
O1458      C1467   1.282       .  A
O1459      C1469   1.283       .  A
O1460      C1468   1.285       .  A
O1461      C1470   1.267       .  A
O1462      C1471   1.286       .  A
O1463      C1470   1.286       .  A
O1464      C1471   1.265       .  A
O1465      C1472   1.273       .  A
O1466      C1472   1.280       .  A
C1469      C1655   1.473       .  S
Zn1473     O1478   2.037       .  S
Zn1473     O1482   2.002       .  S
Zn1473     O1489   2.064   1_556  S
Zn1474     O1477   1.872       .  S
Zn1474     O1479   1.985       .  S
Zn1474     O1481   2.005       .  S
Zn1474     O1485   1.945       .  S
Zn1475     O1480   2.024       .  S
Zn1475     O1483   2.099   1_556  S
Zn1475     O1486   1.969       .  S
Zn1476     O1477   1.882       .  S
Zn1476     O1484   2.092       .  S
Zn1476     O1487   2.060       .  S
Zn1476     O1488   2.001       .  S
O1479      C1491   1.265       .  A
O1480      C1492   1.284       .  A
O1481      C1490   1.274       .  A
O1482      C1492   1.276       .  A
O1484      C1493   1.284       .  A
O1485      C1494   1.271       .  A
O1487      C1494   1.285       .  A
O1488      C1495   1.275       .  A
C1490      C1835   1.461       .  S
C1492      C1517   1.454       .  S
C1494      C1515   1.446       .  S
C1495      C1586   1.468       .  S
Zn1496     O1500   1.881       .  S
Zn1496     O1501   2.096       .  S
Zn1496     O1505   2.057       .  S
Zn1496     O1512   2.003       .  S
Zn1497     O1500   1.877       .  S
Zn1497     O1502   2.084       .  S
Zn1497     O1504   1.961       .  S
Zn1497     O1508   2.028       .  S
Zn1498     O1500   1.886       .  S
Zn1498     O1503   1.949       .  S
Zn1498     O1506   1.995       .  S
Zn1498     O1509   1.978       .  S
Zn1499     O1500   1.903       .  S
Zn1499     O1507   2.032       .  S
Zn1499     O1510   1.994       .  S
Zn1499     O1511   2.037       .  S
O1501      C1513   1.284       .  A
O1502      C1514   1.287       .  A
O1503      C1515   1.271       .  A
O1504      C1513   1.262       .  A
O1505      C1515   1.284       .  A
O1506      C1514   1.265       .  A
O1507      C1516   1.276       .  A
O1508      C1517   1.284       .  A
O1509      C1516   1.273       .  A
O1510      C1517   1.274       .  A
O1511      C1518   1.278       .  A
O1512      C1518   1.277       .  A
C1516      C1607   1.451       .  S
C1518      C2091   1.467       .  S
Zn1519     O1523   1.875       .  S
Zn1519     O1524   1.956       .  S
Zn1519     O1528   1.996       .  S
Zn1519     O1535   2.067       .  S
Zn1520     O1523   1.883       .  S
Zn1520     O1525   1.989       .  S
Zn1520     O1527   2.090       .  S
Zn1520     O1531   2.055       .  S
Zn1521     O1523   1.905       .  S
Zn1521     O1526   2.004       .  S
Zn1521     O1529   2.063       .  S
Zn1521     O1532   2.063       .  S
Zn1522     O1523   1.877       .  S
Zn1522     O1530   1.963       .  S
Zn1522     O1533   1.942       .  S
Zn1522     O1534   1.995       .  S
O1524      C1536   1.261       .  A
O1525      C1537   1.275       .  A
O1526      C1538   1.275       .  A
O1527      C1536   1.283       .  A
O1528      C1538   1.280       .  A
O1529      C1537   1.281       .  A
O1530      C1539   1.272       .  A
O1531      C1540   1.283       .  A
O1532      C1539   1.280       .  A
O1533      C1540   1.268       .  A
O1534      C1541   1.266       .  A
O1535      C1541   1.285       .  A
C1536      C1609   1.463       .  S
C1538      C1561   1.448       .  S
C1539      C2070   1.467   1_545  S
C1540      C1563   1.445       .  S
C1541      C1631   1.478       .  S
Zn1542     O1546   1.873       .  S
Zn1542     O1547   2.009       .  S
Zn1542     O1551   1.947       .  S
Zn1542     O1558   2.009       .  S
Zn1543     O1548   2.053       .  S
Zn1543     O1550   2.035       .  S
Zn1543     O1554   1.993       .  S
Zn1544     O1546   1.880       .  S
Zn1544     O1549   2.062       .  S
Zn1544     O1552   1.999       .  S
Zn1544     O1555   2.100       .  S
Zn1545     O1553   1.972       .  S
Zn1545     O1556   2.007       .  S
Zn1545     O1557   2.084       .  S
O1547      C1559   1.276       .  A
O1549      C1561   1.286       .  A
O1551      C1561   1.270       .  A
O1552      C1560   1.275       .  A
O1554      C1563   1.275       .  A
O1555      C1562   1.286   1_556  A
O1556      C1563   1.282       .  A
O1558      C1564   1.268       .  A
C1559      C1766   1.461   1_546  S
C1564      C1653   1.481       .  S
Zn1565     O1569   1.885       .  S
Zn1565     O1570   2.012       .  S
Zn1565     O1574   2.078       .  S
Zn1565     O1581   1.975       .  S
Zn1566     O1569   1.911       .  S
Zn1566     O1571   2.073       .  S
Zn1566     O1573   2.007       .  S
Zn1566     O1577   2.081       .  S
Zn1567     O1569   1.882       .  S
Zn1567     O1572   1.988       .  S
Zn1567     O1575   1.979       .  S
Zn1568     O1569   1.886       .  S
Zn1568     O1579   1.983       .  S
Zn1568     O1580   2.089       .  S
O1570      C1582   1.283       .  A
O1571      C1583   1.280       .  A
O1572      C1584   1.266       .  A
O1573      C1582   1.277       .  A
O1574      C1584   1.286       .  A
O1575      C1583   1.273       .  A
O1576      C1585   1.284       .  A
O1577      C1586   1.283       .  A
O1578      C1585   1.271       .  A
O1579      C1586   1.272       .  A
O1580      C1587   1.284       .  A
O1581      C1587   1.264       .  A
C1582      C1610   1.453       .  S
C1585      C1606   1.446       .  S
C1587      C1629   1.478       .  S
Zn1588     O1592   1.900       .  S
Zn1588     O1593   2.032       .  S
Zn1588     O1597   2.029       .  S
Zn1588     O1604   1.996       .  S
Zn1589     O1592   1.880       .  S
Zn1589     O1594   2.047       .  S
Zn1589     O1596   2.000       .  S
Zn1589     O1600   2.089       .  S
Zn1590     O1592   1.883       .  S
Zn1590     O1595   1.984       .  S
Zn1590     O1598   1.954       .  S
Zn1590     O1601   1.994       .  S
Zn1591     O1592   1.877       .  S
Zn1591     O1599   2.089       .  S
Zn1591     O1602   1.961       .  S
Zn1591     O1603   2.020       .  S
O1593      C1605   1.277       .  A
O1594      C1606   1.282       .  A
O1595      C1607   1.274       .  A
O1596      C1605   1.276       .  A
O1597      C1607   1.275       .  A
O1598      C1606   1.271       .  A
O1599      C1608   1.286       .  A
O1600      C1609   1.284       .  A
O1601      C1608   1.267       .  A
O1602      C1609   1.261       .  A
O1603      C1610   1.284       .  A
O1604      C1610   1.274       .  A
C1608      C1656   1.485       .  S
Zn1611     O1615   1.916       .  S
Zn1611     O1616   2.064       .  S
Zn1611     O1620   1.997       .  S
Zn1611     O1627   2.056       .  S
Zn1612     O1615   1.878       .  S
Zn1612     O1617   1.983       .  S
Zn1612     O1619   1.961       .  S
Zn1612     O1623   1.943       .  S
Zn1613     O1615   1.887       .  S
Zn1613     O1618   2.022       .  S
Zn1613     O1621   2.077       .  S
Zn1613     O1624   1.964       .  S
Zn1614     O1615   1.888       .  S
Zn1614     O1622   2.099       .  S
Zn1614     O1625   2.066       .  S
Zn1614     O1626   1.997       .  S
O1616      C1628   1.279       .  A
O1617      C1629   1.265       .  A
O1618      C1630   1.284       .  A
O1619      C1628   1.272       .  A
O1620      C1630   1.275       .  A
O1621      C1629   1.286       .  A
O1622      C1631   1.285       .  A
O1623      C1632   1.269       .  A
O1624      C1631   1.263       .  A
O1625      C1632   1.284       .  A
O1626      C1633   1.276       .  A
O1627      C1633   1.280       .  A
C1630      C1651   1.454       .  S
C1632      C1654   1.448       .  S
C1633      C1953   1.470   1_545  S
Zn1634     O1638   1.905       .  S
Zn1634     O1639   2.023       .  S
Zn1634     O1643   2.117       .  S
Zn1634     O1650   1.998       .  S
Zn1635     O1638   1.916       .  S
Zn1635     O1640   2.073       .  S
Zn1635     O1642   2.001       .  S
Zn1635     O1646   2.086       .  S
Zn1636     O1638   1.868       .  S
Zn1636     O1641   1.971       .  S
Zn1636     O1644   1.982       .  S
Zn1636     O1647   1.938       .  S
Zn1637     O1638   1.885       .  S
Zn1637     O1645   2.070       .  S
Zn1637     O1648   1.997       .  S
Zn1637     O1649   2.093       .  S
O1639      C1651   1.285       .  A
O1640      C1652   1.280       .  A
O1641      C1653   1.264       .  A
O1642      C1651   1.276       .  A
O1643      C1653   1.289       .  A
O1644      C1652   1.272       .  A
O1646      C1655   1.283       .  A
O1648      C1655   1.274       .  A
O1649      C1656   1.285       .  A
O1650      C1656   1.268       .  A
C1652      C1977   1.476   1_545  S
Zn1657     O1661   1.888       .  S
Zn1657     O1662   2.097       .  S
Zn1657     O1666   2.061       .  S
Zn1657     O1673   2.004       .  S
Zn1658     O1661   1.895       .  S
Zn1658     O1663   2.105       .  S
Zn1658     O1665   1.985       .  S
Zn1658     O1669   2.027       .  S
Zn1659     O1661   1.869       .  S
Zn1659     O1664   1.937       .  S
Zn1659     O1667   1.982       .  S
Zn1659     O1670   1.978       .  S
Zn1660     O1661   1.915       .  S
Zn1660     O1668   2.058       .  S
Zn1660     O1671   1.994       .  S
Zn1660     O1672   2.061       .  S
O1662      C1674   1.285       .  A
O1663      C1675   1.288       .  A
O1664      C1952   1.268       .  A
O1665      C1674   1.267       .  A
O1666      C1952   1.284       .  A
O1667      C1675   1.265       .  A
O1668      C1677   1.278       .  A
O1669      C1678   1.284       .  A
O1670      C1677   1.272       .  A
O1671      C1678   1.275       .  A
O1672      C1679   1.280       .  A
O1673      C1679   1.276       .  A
C1674      C1720   1.482       .  S
C1675      C1767   1.480       .  S
C1676      O1940   1.268       .  A
C1676      O1942   1.284       .  A
C1676      C1700   1.444       .  S
C1678      C1697   1.453       .  S
Zn1680     O1684   1.894       .  S
Zn1680     O1685   2.026       .  S
Zn1680     O1689   2.107       .  S
Zn1680     O1696   1.968       .  S
Zn1681     O1684   1.908       .  S
Zn1681     O1686   2.052       .  S
Zn1681     O1688   1.995       .  S
Zn1681     O1692   2.060       .  S
Zn1682     O1684   1.865       .  S
Zn1682     O1687   1.975       .  S
Zn1682     O1690   1.967       .  S
Zn1682     O1693   1.936       .  S
Zn1683     O1684   1.885       .  S
Zn1683     O1691   2.061       .  S
Zn1683     O1694   2.011       .  S
Zn1683     O1695   2.091       .  S
O1685      C1697   1.284       .  A
O1686      C1698   1.278       .  A
O1687      C1699   1.264       .  A
O1688      C1697   1.275       .  A
O1689      C1699   1.288       .  A
O1690      C1698   1.271       .  A
O1691      C1700   1.283       .  A
O1692      C1701   1.281       .  A
O1693      C1700   1.268       .  A
O1694      C1701   1.278       .  A
O1695      C1702   1.284       .  A
O1696      C1702   1.265       .  A
C1699      C1747   1.481       .  S
C1702      C1789   1.466       .  S
Zn1703     O1707   1.883       .  S
Zn1703     O1708   2.073       .  S
Zn1703     O1712   1.960       .  S
Zn1703     O1719   2.007       .  S
Zn1704     O1707   1.876       .  S
Zn1704     O1709   1.949       .  S
Zn1704     O1711   2.004       .  S
Zn1704     O1715   1.973       .  S
Zn1705     O1707   1.885       .  S
Zn1705     O1710   2.118       .  S
Zn1705     O1713   2.080       .  S
Zn1705     O1716   1.979       .  S
Zn1706     O1707   1.914       .  S
Zn1706     O1714   2.059       .  S
Zn1706     O1717   2.067       .  S
Zn1706     O1718   1.995       .  S
O1708      C1720   1.285       .  A
O1709      C1721   1.269       .  A
O1710      C1722   1.287       .  A
O1711      C1720   1.268       .  A
O1712      C1722   1.262       .  A
O1713      C1721   1.288       .  A
O1714      C1723   1.280       .  A
O1715      C1724   1.273       .  A
O1716      C1723   1.274       .  A
O1717      C1724   1.279       .  A
O1718      C1725   1.275       .  A
O1719      C1725   1.283       .  A
C1721      C1743   1.454       .  S
C1722      C1790   1.483       .  S
C1723      C1904   1.468       .  S
C1725      C1746   1.448       .  S
Zn1726     O1730   1.905       .  S
Zn1726     O2007   2.016       .  S
Zn1726     O1735   2.086       .  S
Zn1726     O1742   2.072       .  S
Zn1727     O1730   1.886       .  S
Zn1727     O1732   1.958       .  S
Zn1727     O2010   2.013       .  S
Zn1727     O1738   2.091       .  S
Zn1728     O1730   1.881       .  S
Zn1728     O1733   2.002       .  S
Zn1728     O1736   2.099       .  S
Zn1728     O1739   2.076       .  S
Zn1729     O1730   1.860       .  S
Zn1729     O1737   1.933       .  S
Zn1729     O1740   1.995       .  S
Zn1729     O1741   1.971       .  S
O1731     Zn2002   2.016   1_554  S
O1731      C1743   1.278       .  A
O1732      C1744   1.264       .  A
O1733      C1745   1.276       .  A
O1734     Zn2003   2.013   1_554  S
O1734      C1743   1.282       .  A
O1735      C1745   1.283       .  A
O1736      C1744   1.285       .  A
O1737      C1746   1.267       .  A
O1738      C1747   1.286       .  A
O1739      C1746   1.286       .  A
O1740      C1747   1.265       .  A
O1741      C1748   1.273       .  A
O1742      C1748   1.280       .  A
C1744      C2045   1.467       .  S
C1745      C1931   1.473       .  S
Zn1749     O2029   1.900       .  S
Zn1749     O1754   2.037       .  S
Zn1749     O1758   2.002       .  S
Zn1749     O1765   2.064       .  S
Zn1750     O1753   1.872       .  S
Zn1750     O1755   1.985       .  S
Zn1750     O1757   2.005       .  S
Zn1750     O1761   1.945       .  S
Zn1751     O2029   1.892       .  S
Zn1751     O1756   2.024       .  S
Zn1751     O1759   2.099       .  S
Zn1751     O1762   1.969       .  S
Zn1752     O1753   1.882       .  S
Zn1752     O1760   2.092       .  S
Zn1752     O1763   2.060       .  S
Zn1752     O1764   2.001       .  S
O1753     Zn2025   1.900   1_554  S
O1753     Zn2027   1.892   1_554  S
O1754      C2042   1.276       .  A
O1755      C1767   1.265       .  A
O1756      C1768   1.284       .  A
O1757      C1766   1.274       .  A
O1758      C1768   1.276       .  A
O1759      C2043   1.287       .  A
O1760      C1769   1.284   1_554  A
O1761      C1770   1.271       .  A
O1762      C2045   1.264       .  A
O1763      C1770   1.285       .  A
O1764      C1771   1.275       .  A
O1765      C2047   1.280       .  A
C1766      O2030   1.276   1_554  A
C1767      O2035   1.287       .  A
C1768      C1793   1.454       .  S
C1769      O2038   1.264       .  A
C1769      C2020   1.467       .  S
C1770      C1791   1.446       .  S
C1771      O2041   1.280       .  A
C1771      C1862   1.468       .  S
Zn1772     O1776   1.881       .  S
Zn1772     O1777   2.096       .  S
Zn1772     O1781   2.057       .  S
Zn1772     O1788   2.003       .  S
Zn1773     O1776   1.877       .  S
Zn1773     O1778   2.084       .  S
Zn1773     O1780   1.961       .  S
Zn1773     O1784   2.028       .  S
Zn1774     O1776   1.886       .  S
Zn1774     O1779   1.949       .  S
Zn1774     O1782   1.995       .  S
Zn1774     O1785   1.979       .  S
Zn1775     O1776   1.903       .  S
Zn1775     O1783   2.032       .  S
Zn1775     O1786   1.994       .  S
Zn1775     O1787   2.037       .  S
O1777      C1789   1.284       .  A
O1778      C1790   1.287       .  A
O1779      C1791   1.271       .  A
O1780      C1789   1.262       .  A
O1781      C1791   1.284       .  A
O1782      C1790   1.265       .  A
O1783      C1792   1.276       .  A
O1784      C1793   1.284       .  A
O1785      C1792   1.273       .  A
O1786      C1793   1.274       .  A
O1787      C1794   1.278       .  A
O1788      C1794   1.277       .  A
C1792      C1883   1.451       .  S
Zn1795     O1799   1.875       .  S
Zn1795     O1800   1.956       .  S
Zn1795     O1804   1.996       .  S
Zn1795     O1811   2.068       .  S
Zn1796     O1799   1.883       .  S
Zn1796     O1801   1.989       .  S
Zn1796     O1803   2.090       .  S
Zn1796     O1807   2.055       .  S
Zn1797     O1799   1.905       .  S
Zn1797     O1802   2.004       .  S
Zn1797     O1805   2.063       .  S
Zn1797     O1808   2.063       .  S
Zn1798     O1799   1.877       .  S
Zn1798     O1806   1.963       .  S
Zn1798     O1809   1.942       .  S
Zn1798     O1810   1.995       .  S
O1800      C1812   1.261       .  A
O1801      C1813   1.275       .  A
O1802      C1814   1.275       .  A
O1803      C1812   1.283       .  A
O1804      C1814   1.280       .  A
O1805      C1813   1.281       .  A
O1806      C1815   1.272       .  A
O1807      C1816   1.283       .  A
O1808      C1815   1.280       .  A
O1809      C1816   1.268       .  A
O1810      C1817   1.266       .  A
O1811      C1817   1.285       .  A
C1812      C1885   1.463       .  S
C1814      C1837   1.448       .  S
C1816      C1839   1.445       .  S
C1817      C1907   1.478       .  S
Zn1818     O1822   1.873       .  S
Zn1818     O1823   2.009       .  S
Zn1818     O1827   1.947       .  S
Zn1818     O1834   2.009       .  S
Zn1819     O2098   1.902   1_554  S
Zn1819     O1824   2.053   1_554  S
Zn1819     O1826   2.035       .  S
Zn1819     O1830   1.993       .  S
Zn1820     O1822   1.880       .  S
Zn1820     O1825   2.062       .  S
Zn1820     O1828   1.999       .  S
Zn1820     O1831   2.100       .  S
Zn1821     O2098   1.886   1_554  S
Zn1821     O1829   1.972       .  S
Zn1821     O1832   2.007       .  S
Zn1821     O1833   2.084   1_554  S
O1822     Zn2095   1.902       .  S
O1822     Zn2097   1.886       .  S
O1823      C1835   1.276       .  A
O1824      C2112   1.279       .  A
O1825      C1837   1.286       .  A
O1826      C2111   1.276   1_554  A
O1827      C1837   1.270       .  A
O1828      C1836   1.275       .  A
O1829      C2114   1.266       .  A
O1830      C1839   1.275       .  A
O1831      C1838   1.286       .  A
O1832      C1839   1.282       .  A
O1833      C2116   1.285       .  A
O1834      C1840   1.268       .  A
C1835      O2102   1.276       .  A
C1836      O2100   1.279       .  A
C1838      O2105   1.266       .  A
C1838      C2136   1.479       .  S
C1840      O2109   1.285       .  A
C1840      C1929   1.481       .  S
Zn1841     O1845   1.885       .  S
Zn1841     O1846   2.012       .  S
Zn1841     O1850   2.078       .  S
Zn1841     O1857   1.975       .  S
Zn1842     O1845   1.911       .  S
Zn1842     O1847   2.073       .  S
Zn1842     O1849   2.007       .  S
Zn1842     O1853   2.081       .  S
Zn1843     O1845   1.882       .  S
Zn1843     O1848   1.988       .  S
Zn1843     O1851   1.979       .  S
Zn1843     O2130   1.947   1_554  S
Zn1844     O1845   1.886       .  S
Zn1844     O2128   2.057   1_554  S
Zn1844     O1855   1.983       .  S
Zn1844     O1856   2.089       .  S
O1846      C1858   1.283       .  A
O1847      C1859   1.280       .  A
O1848      C1860   1.266       .  A
O1849      C1858   1.277       .  A
O1850      C1860   1.286       .  A
O1851      C1859   1.273       .  A
O1852     Zn2120   2.057       .  S
O1852      C1861   1.284       .  A
O1853      C1862   1.283       .  A
O1854     Zn2119   1.947       .  S
O1854      C1861   1.271       .  A
O1855      C1862   1.272       .  A
O1856      C1863   1.284       .  A
O1857      C1863   1.264       .  A
C1858      C1886   1.453       .  S
C1860      C2114   1.479       .  S
C1861      C1882   1.446       .  S
C1863      C1905   1.478       .  S
Zn1864     O1868   1.900       .  S
Zn1864     O1869   2.033       .  S
Zn1864     O1873   2.029       .  S
Zn1864     O1880   1.996       .  S
Zn1865     O1868   1.880       .  S
Zn1865     O1870   2.047       .  S
Zn1865     O1872   2.000       .  S
Zn1865     O1876   2.089       .  S
Zn1866     O1868   1.884       .  S
Zn1866     O1871   1.984       .  S
Zn1866     O1874   1.954       .  S
Zn1866     O1877   1.994       .  S
Zn1867     O1868   1.877       .  S
Zn1867     O1875   2.089       .  S
Zn1867     O1878   1.961       .  S
Zn1867     O1879   2.020       .  S
O1869      C1881   1.277       .  A
O1870      C1882   1.282       .  A
O1871      C1883   1.274       .  A
O1872      C1881   1.276       .  A
O1873      C1883   1.275       .  A
O1874      C1882   1.271       .  A
O1875      C1884   1.286       .  A
O1876      C1885   1.284       .  A
O1877      C1884   1.267       .  A
O1878      C1885   1.261       .  A
O1879      C1886   1.284       .  A
O1880      C1886   1.274       .  A
C1884      C1932   1.485       .  S
Zn1887     O1891   1.916       .  S
Zn1887     O1892   2.064       .  S
Zn1887     O1896   1.997       .  S
Zn1887     O1903   2.056       .  S
Zn1888     O1891   1.878       .  S
Zn1888     O1893   1.983       .  S
Zn1888     O1895   1.961       .  S
Zn1888     O1899   1.942       .  S
Zn1889     O1891   1.887       .  S
Zn1889     O1894   2.022       .  S
Zn1889     O1897   2.077       .  S
Zn1889     O1900   1.964       .  S
Zn1890     O1891   1.888       .  S
Zn1890     O1898   2.099       .  S
Zn1890     O1901   2.066       .  S
Zn1890     O1902   1.997       .  S
O1892      C1904   1.279       .  A
O1893      C1905   1.265       .  A
O1894      C1906   1.284       .  A
O1895      C1904   1.272       .  A
O1896      C1906   1.275       .  A
O1897      C1905   1.285       .  A
O1898      C1907   1.285       .  A
O1899      C1908   1.269       .  A
O1900      C1907   1.263       .  A
O1901      C1908   1.284       .  A
O1902      C1909   1.276       .  A
O1903      C1909   1.280       .  A
C1906      C1927   1.454       .  S
C1908      C1930   1.448   1_554  S
Zn1910     O1914   1.905       .  S
Zn1910     O1915   2.023       .  S
Zn1910     O1919   2.117       .  S
Zn1910     O1926   1.998       .  S
Zn1911     O1914   1.916       .  S
Zn1911     O1916   2.073       .  S
Zn1911     O1918   2.001       .  S
Zn1911     O1922   2.086       .  S
Zn1912     O1914   1.867       .  S
Zn1912     O1917   1.971       .  S
Zn1912     O1920   1.982       .  S
Zn1912     O1923   1.938       .  S
Zn1913     O1914   1.885       .  S
Zn1913     O1921   2.070       .  S
Zn1913     O1924   1.997       .  S
Zn1913     O1925   2.093       .  S
O1915      C1927   1.285       .  A
O1916      C1928   1.280       .  A
O1917      C1929   1.264       .  A
O1918      C1927   1.276       .  A
O1919      C1929   1.289       .  A
O1920      C1928   1.272       .  A
O1921      C2206   1.286       .  A
O1922      C1931   1.283       .  A
O1923      C2206   1.270       .  A
O1924      C1931   1.274       .  A
O1925      C1932   1.285       .  A
O1926      C1932   1.268       .  A
C1930      O2197   1.286       .  A
C1930      O2199   1.270       .  A
Zn1933     O1937   1.887       .  S
Zn1933     O1938   2.097       .  S
Zn1933     O1942   2.061       .  S
Zn1933     O1949   2.004       .  S
Zn1934     O1937   1.895       .  S
Zn1934     O1939   2.105       .  S
Zn1934     O1941   1.985       .  S
Zn1934     O1945   2.027       .  S
Zn1935     O1937   1.869       .  S
Zn1935     O1940   1.937       .  S
Zn1935     O1943   1.982       .  S
Zn1935     O1946   1.978       .  S
Zn1936     O1937   1.915       .  S
Zn1936     O1944   2.058       .  S
Zn1936     O1947   1.994       .  S
Zn1936     O1948   2.061       .  S
O1938      C1950   1.285       .  A
O1939      C1951   1.288       .  A
O1941      C1950   1.267       .  A
O1943      C1951   1.265       .  A
O1944      C1953   1.278       .  A
O1945      C1954   1.284       .  A
O1946      C1953   1.272       .  A
O1947      C1954   1.275       .  A
O1948      C1955   1.280       .  A
O1949      C1955   1.276       .  A
C1950      C1996   1.482       .  S
C1951      C2043   1.480       .  S
C1952      C1976   1.444   1_554  S
C1954      C1973   1.453       .  S
Zn1956     O1960   1.894       .  S
Zn1956     O1961   2.026       .  S
Zn1956     O1965   2.108       .  S
Zn1956     O1972   1.968       .  S
Zn1957     O1960   1.908       .  S
Zn1957     O1962   2.052       .  S
Zn1957     O1964   1.995       .  S
Zn1957     O1968   2.060       .  S
Zn1958     O1960   1.865       .  S
Zn1958     O1963   1.975       .  S
Zn1958     O1966   1.967       .  S
Zn1958     O1969   1.936       .  S
Zn1959     O1960   1.885       .  S
Zn1959     O1967   2.061       .  S
Zn1959     O1970   2.011       .  S
Zn1959     O1971   2.091       .  S
O1961      C1973   1.284       .  A
O1962      C1974   1.278       .  A
O1963      C1975   1.264       .  A
O1964      C1973   1.275       .  A
O1965      C1975   1.288       .  A
O1966      C1974   1.271       .  A
O1967      C1976   1.283       .  A
O1968      C1977   1.281       .  A
O1969      C1976   1.268       .  A
O1970      C1977   1.278       .  A
O1971      C1978   1.284       .  A
O1972      C1978   1.265       .  A
C1975      C2023   1.481       .  S
C1978      C2065   1.466       .  S
Zn1979     O1983   1.883       .  S
Zn1979     O1984   2.073       .  S
Zn1979     O1988   1.960       .  S
Zn1979     O1995   2.007       .  S
Zn1980     O1983   1.876       .  S
Zn1980     O1985   1.949       .  S
Zn1980     O1987   2.004       .  S
Zn1980     O1991   1.973       .  S
Zn1981     O1983   1.885       .  S
Zn1981     O1986   2.118       .  S
Zn1981     O1989   2.080       .  S
Zn1981     O1992   1.979       .  S
Zn1982     O1983   1.914       .  S
Zn1982     O1990   2.059       .  S
Zn1982     O1993   2.067       .  S
Zn1982     O1994   1.995       .  S
O1984      C1996   1.285       .  A
O1985      C1997   1.269       .  A
O1986      C1998   1.287       .  A
O1987      C1996   1.268       .  A
O1988      C1998   1.262       .  A
O1989      C1997   1.288       .  A
O1990      C1999   1.280       .  A
O1991      C2000   1.273       .  A
O1992      C1999   1.274       .  A
O1993      C2000   1.279       .  A
O1994      C2001   1.275       .  A
O1995      C2001   1.283       .  A
C1997      C2019   1.454       .  S
C1998      C2066   1.483       .  S
C1999      C2180   1.468       .  S
C2001      C2022   1.448       .  S
Zn2002     O2006   1.905       .  S
Zn2002     O2011   2.086       .  S
Zn2002     O2018   2.072       .  S
Zn2003     O2006   1.886       .  S
Zn2003     O2008   1.958       .  S
Zn2003     O2014   2.091       .  S
Zn2004     O2006   1.881       .  S
Zn2004     O2009   2.002       .  S
Zn2004     O2012   2.099       .  S
Zn2004     O2015   2.076       .  S
Zn2005     O2006   1.860       .  S
Zn2005     O2013   1.933       .  S
Zn2005     O2016   1.995       .  S
Zn2005     O2017   1.971       .  S
O2007      C2019   1.278       .  A
O2008      C2020   1.264       .  A
O2009      C2021   1.276       .  A
O2010      C2019   1.282       .  A
O2011      C2021   1.283       .  A
O2012      C2020   1.285       .  A
O2013      C2022   1.267       .  A
O2014      C2023   1.286       .  A
O2015      C2022   1.286       .  A
O2016      C2023   1.265       .  A
O2017      C2024   1.273       .  A
O2018      C2024   1.280       .  A
C2021      C2207   1.473       .  S
Zn2025     O2030   2.037       .  S
Zn2025     O2034   2.002       .  S
Zn2025     O2041   2.064   1_556  S
Zn2026     O2029   1.872       .  S
Zn2026     O2031   1.985       .  S
Zn2026     O2033   2.005       .  S
Zn2026     O2037   1.945       .  S
Zn2027     O2032   2.024       .  S
Zn2027     O2035   2.099   1_556  S
Zn2027     O2038   1.969       .  S
Zn2028     O2029   1.882       .  S
Zn2028     O2036   2.092       .  S
Zn2028     O2039   2.060       .  S
Zn2028     O2040   2.001       .  S
O2031      C2043   1.265       .  A
O2032      C2044   1.284       .  A
O2033      C2042   1.274       .  A
O2034      C2044   1.276       .  A
O2036      C2045   1.284       .  A
O2037      C2046   1.271       .  A
O2039      C2046   1.285       .  A
O2040      C2047   1.275       .  A
C2044      C2069   1.454       .  S
C2046      C2067   1.446       .  S
C2047      C2138   1.468       .  S
Zn2048     O2052   1.881       .  S
Zn2048     O2053   2.096       .  S
Zn2048     O2057   2.057       .  S
Zn2048     O2064   2.003       .  S
Zn2049     O2052   1.877       .  S
Zn2049     O2054   2.084       .  S
Zn2049     O2056   1.961       .  S
Zn2049     O2060   2.028       .  S
Zn2050     O2052   1.886       .  S
Zn2050     O2055   1.949       .  S
Zn2050     O2058   1.995       .  S
Zn2050     O2061   1.978       .  S
Zn2051     O2052   1.903       .  S
Zn2051     O2059   2.032       .  S
Zn2051     O2062   1.994       .  S
Zn2051     O2063   2.037       .  S
O2053      C2065   1.284       .  A
O2054      C2066   1.287       .  A
O2055      C2067   1.271       .  A
O2056      C2065   1.262       .  A
O2057      C2067   1.284       .  A
O2058      C2066   1.265       .  A
O2059      C2068   1.276       .  A
O2060      C2069   1.284       .  A
O2061      C2068   1.273       .  A
O2062      C2069   1.274       .  A
O2063      C2070   1.278       .  A
O2064      C2070   1.277       .  A
C2068      C2159   1.451       .  S
Zn2071     O2075   1.875       .  S
Zn2071     O2076   1.956       .  S
Zn2071     O2080   1.996       .  S
Zn2071     O2087   2.067       .  S
Zn2072     O2075   1.883       .  S
Zn2072     O2077   1.989       .  S
Zn2072     O2079   2.090       .  S
Zn2072     O2083   2.055       .  S
Zn2073     O2075   1.905       .  S
Zn2073     O2078   2.004       .  S
Zn2073     O2081   2.063       .  S
Zn2073     O2084   2.063       .  S
Zn2074     O2075   1.877       .  S
Zn2074     O2082   1.963       .  S
Zn2074     O2085   1.942       .  S
Zn2074     O2086   1.995       .  S
O2076      C2088   1.261       .  A
O2077      C2089   1.275       .  A
O2078      C2090   1.275       .  A
O2079      C2088   1.283       .  A
O2080      C2090   1.280       .  A
O2081      C2089   1.281       .  A
O2082      C2091   1.272       .  A
O2083      C2092   1.283       .  A
O2084      C2091   1.280       .  A
O2085      C2092   1.268       .  A
O2086      C2093   1.266       .  A
O2087      C2093   1.285       .  A
C2088      C2161   1.463       .  S
C2090      C2113   1.448       .  S
C2092      C2115   1.445       .  S
C2093      C2183   1.478       .  S
Zn2094     O2098   1.873       .  S
Zn2094     O2099   2.009       .  S
Zn2094     O2103   1.947       .  S
Zn2094     O2110   2.009       .  S
Zn2095     O2100   2.053       .  S
Zn2095     O2102   2.035       .  S
Zn2095     O2106   1.993       .  S
Zn2096     O2098   1.880       .  S
Zn2096     O2101   2.062       .  S
Zn2096     O2104   1.999       .  S
Zn2096     O2107   2.100       .  S
Zn2097     O2105   1.972       .  S
Zn2097     O2108   2.007       .  S
Zn2097     O2109   2.084       .  S
O2099      C2111   1.276       .  A
O2101      C2113   1.286       .  A
O2103      C2113   1.270       .  A
O2104      C2112   1.275       .  A
O2106      C2115   1.275       .  A
O2107      C2114   1.286   1_556  A
O2108      C2115   1.282       .  A
O2110      C2116   1.268       .  A
C2116      C2205   1.481       .  S
Zn2117     O2121   1.885       .  S
Zn2117     O2122   2.012       .  S
Zn2117     O2126   2.078       .  S
Zn2117     O2133   1.975       .  S
Zn2118     O2121   1.911       .  S
Zn2118     O2123   2.073       .  S
Zn2118     O2125   2.007       .  S
Zn2118     O2129   2.081       .  S
Zn2119     O2121   1.882       .  S
Zn2119     O2124   1.988       .  S
Zn2119     O2127   1.979       .  S
Zn2120     O2121   1.886       .  S
Zn2120     O2131   1.983       .  S
Zn2120     O2132   2.089       .  S
O2122      C2134   1.283       .  A
O2123      C2135   1.280       .  A
O2124      C2136   1.266       .  A
O2125      C2134   1.277       .  A
O2126      C2136   1.286       .  A
O2127      C2135   1.273       .  A
O2128      C2137   1.284       .  A
O2129      C2138   1.283       .  A
O2130      C2137   1.271       .  A
O2131      C2138   1.272       .  A
O2132      C2139   1.284       .  A
O2133      C2139   1.264       .  A
C2134      C2162   1.453       .  S
C2137      C2158   1.446       .  S
C2139      C2181   1.478       .  S
Zn2140     O2144   1.900       .  S
Zn2140     O2145   2.032       .  S
Zn2140     O2149   2.029       .  S
Zn2140     O2156   1.996       .  S
Zn2141     O2144   1.880       .  S
Zn2141     O2146   2.047       .  S
Zn2141     O2148   2.000       .  S
Zn2141     O2152   2.089       .  S
Zn2142     O2144   1.883       .  S
Zn2142     O2147   1.984       .  S
Zn2142     O2150   1.954       .  S
Zn2142     O2153   1.994       .  S
Zn2143     O2144   1.877       .  S
Zn2143     O2151   2.089       .  S
Zn2143     O2154   1.961       .  S
Zn2143     O2155   2.020       .  S
O2145      C2157   1.277       .  A
O2146      C2158   1.282       .  A
O2147      C2159   1.274       .  A
O2148      C2157   1.276       .  A
O2149      C2159   1.275       .  A
O2150      C2158   1.271       .  A
O2151      C2160   1.286       .  A
O2152      C2161   1.284       .  A
O2153      C2160   1.267       .  A
O2154      C2161   1.261       .  A
O2155      C2162   1.284       .  A
O2156      C2162   1.274       .  A
C2160      C2208   1.485       .  S
Zn2163     O2167   1.916       .  S
Zn2163     O2168   2.064       .  S
Zn2163     O2172   1.997       .  S
Zn2163     O2179   2.056       .  S
Zn2164     O2167   1.878       .  S
Zn2164     O2169   1.983       .  S
Zn2164     O2171   1.961       .  S
Zn2164     O2175   1.943       .  S
Zn2165     O2167   1.887       .  S
Zn2165     O2170   2.022       .  S
Zn2165     O2173   2.077       .  S
Zn2165     O2176   1.964       .  S
Zn2166     O2167   1.888       .  S
Zn2166     O2174   2.099       .  S
Zn2166     O2177   2.066       .  S
Zn2166     O2178   1.997       .  S
O2168      C2180   1.279       .  A
O2169      C2181   1.265       .  A
O2170      C2182   1.284       .  A
O2171      C2180   1.272       .  A
O2172      C2182   1.275       .  A
O2173      C2181   1.286       .  A
O2174      C2183   1.285       .  A
O2175      C2184   1.269       .  A
O2176      C2183   1.263       .  A
O2177      C2184   1.284       .  A
O2178      C2185   1.276       .  A
O2179      C2185   1.280       .  A
C2182      C2203   1.454       .  S
C2184      C2206   1.448       .  S
Zn2186     O2190   1.905       .  S
Zn2186     O2191   2.023       .  S
Zn2186     O2195   2.117       .  S
Zn2186     O2202   1.998       .  S
Zn2187     O2190   1.916       .  S
Zn2187     O2192   2.073       .  S
Zn2187     O2194   2.001       .  S
Zn2187     O2198   2.086       .  S
Zn2188     O2190   1.868       .  S
Zn2188     O2193   1.971       .  S
Zn2188     O2196   1.982       .  S
Zn2188     O2199   1.938       .  S
Zn2189     O2190   1.885       .  S
Zn2189     O2197   2.070       .  S
Zn2189     O2200   1.997       .  S
Zn2189     O2201   2.093       .  S
O2191      C2203   1.285       .  A
O2192      C2204   1.280       .  A
O2193      C2205   1.264       .  A
O2194      C2203   1.276       .  A
O2195      C2205   1.289       .  A
O2196      C2204   1.272       .  A
O2198      C2207   1.283       .  A
O2200      C2207   1.274       .  A
O2201      C2208   1.285       .  A
O2202      C2208   1.268       .  A
