geometry optimzed in LAMMPS
_audit_creation_date              2020-12-01 
_audit_creation_method            'lammps2cif' 
_symmetry_space_group_name_H-M    'P1' 
_symmetry_Int_Tables_number       1 
_symmetry_cell_setting            triclinic 
loop_ 
_symmetry_equiv_pos_as_xyz 
  x,y,z 
_cell_length_a                    32.16451273 
_cell_length_b                    29.022971513719526 
_cell_length_c                    28.96600246746856 
_cell_angle_alpha                 91.04122704831573 
_cell_angle_beta                  90.42840002424401 
_cell_angle_gamma                 90.19510798761529 
loop_ 
_atom_site_label 
_atom_site_type_symbol 
_atom_site_fract_x 
_atom_site_fract_y 
_atom_site_fract_z 
_atom_site_charge 
O1          O  0.68206715  0.78232017  0.64606416    -0.81900
O2          O  0.83623630  0.71757492  0.77338282    -0.66600
O3          O  0.73118956  0.73189618  0.70992584    -1.13200
C4          C  0.69218737  0.82252296  0.83378052     1.05000
O5          O  0.81118334  0.71913562  0.84500800    -0.79800
O6          O  0.72763044  0.70395928  0.83456078    -0.67400
Ni7        Ni  0.73183703  0.74601632  0.64530961     1.34900
C8          C  0.69070779  0.70549258  0.81857294     0.83700
O9          O  0.80456352  0.68049464  0.69719890    -0.80400
O10         O  0.78131073  0.71213724  0.63307218    -0.90600
C11         C  0.83965762  0.70929572  0.81631364     0.83300
O12         O  0.76445169  0.79990858  0.65612793    -0.68800
O13         O  0.71315670  0.79357222  0.85658964    -0.88100
C14         C  0.80099349  0.80158655  0.67297944     0.84100
C15         C  0.80777900  0.68843439  0.65451096     1.05700
H16         H  0.78053257  0.79939992  0.77917514     0.37500
O17         O  0.76433326  0.77150520  0.78176076    -1.10800
O18         O  0.68049259  0.73487519  0.78780574    -0.67400
Ni19       Ni  0.71212228  0.77989473  0.75087200     1.26300
O20         O  0.81284678  0.77372306  0.70440291    -0.67700
O21         O  0.69651517  0.82826126  0.79111369    -0.80000
C22         C  0.65607646  0.79711053  0.67537257     0.83500
O23         O  0.66090689  0.79134094  0.71841097    -0.67100
Ni24       Ni  0.76183495  0.75670723  0.84587532     1.27400
Ni25       Ni  0.78479561  0.72562121  0.73996541     1.26100
H26         H  0.71516082  0.70407573  0.71408207     0.38000
C27         C  0.88210502  0.41374131  0.52994399     0.85500
C28         C  0.92457007  0.39086707  0.52815768    -0.54800
C29         C  0.95247209  0.40971327  0.49821229     0.08400
C30         C  0.93290704  0.44807902  0.46905016     0.19300
C31         C  0.89124400  0.46495918  0.53688758    -0.55500
C32         C  0.91832729  0.48334681  0.50579807     0.08500
C33         C  0.86546722  0.41122219  0.48084527    -0.55000
C34         C  0.89181654  0.42761225  0.44811806     0.09100
H35         H  0.93150377  0.36312961  0.55137624     0.13600
H36         H  0.95409423  0.46244853  0.44325795    -0.00700
H37         H  0.87515208  0.48523348  0.56228442     0.13900
H38         H  0.83538714  0.39602331  0.47252023     0.13700
C39         C  0.05962532  0.37635257  0.54544256     0.85500
C40         C  0.07436299  0.42630566  0.54383538    -0.54800
C41         C  0.06175406  0.45058565  0.50607200     0.08400
C42         C  0.03402100  0.42137149  0.47303986     0.19300
C43         C  0.01313577  0.37813636  0.54103051    -0.55500
C44         C  0.99836991  0.40160817  0.50369294     0.08500
C45         C  0.07450010  0.35602560  0.49935689    -0.55000
C46         C  0.06194997  0.37946024  0.46153905     0.09100
H47         H  0.09467161  0.44009407  0.57040494     0.13600
H48         H  0.02345186  0.43996816  0.44208293    -0.00700
H49         H  0.99434871  0.36281834  0.56746751     0.13900
H50         H  0.09812365  0.32942362  0.49679899     0.13700
C51         C  0.93043932  0.61183591  0.53833641     0.85500
C52         C  0.91704588  0.56167092  0.54199549    -0.54800
C53         C  0.93140642  0.53252669  0.50839526     0.08400
C54         C  0.95801963  0.55734010  0.47255376     0.19300
C55         C  0.97738098  0.61116951  0.53513582    -0.55500
C56         C  0.99277625  0.58196257  0.50159867     0.08500
C57         C  0.91529145  0.62432700  0.48973326    -0.55000
C58         C  0.92888589  0.59561392  0.45546948     0.09100
H59         H  0.89536062  0.55164782  0.56805999     0.13600
H60         H  0.96920928  0.53525471  0.44392858    -0.00700
H61         H  0.99600817  0.63156323  0.55912551     0.13900
H62         H  0.89143499  0.64974294  0.48291494     0.13700
C63         C  0.11080412  0.57013878  0.52585663     0.85500
C64         C  0.06649824  0.58859383  0.53018128    -0.54800
C65         C  0.03820805  0.57092081  0.49894571     0.08400
C66         C  0.05763541  0.53505575  0.46564048     0.19300
C67         C  0.10627618  0.51788303  0.52758996    -0.55500
C68         C  0.07666810  0.49905166  0.49875296     0.08500
C69         C  0.12319624  0.57749948  0.47627786    -0.55000
C70         C  0.09551349  0.56060179  0.44435803     0.09100
H71         H  0.05903274  0.61305700  0.55744637     0.13600
H72         H  0.03602108  0.52025535  0.43945277    -0.00700
H73         H  0.12683354  0.49687100  0.54756568     0.13900
H74         H  0.15069774  0.59696834  0.46685829     0.13700
C75         C  0.41838466  0.46268472  0.89487927     0.85500
C76         C  0.46559619  0.46420082  0.88899784    -0.54800
C77         C  0.48600110  0.50058115  0.91083916     0.08400
C78         C  0.45572943  0.53121149  0.93989210     0.19300
C79         C  0.41412155  0.46151405  0.94783390    -0.55500
C80         C  0.43322036  0.49688478  0.97258839     0.08500
C81         C  0.40331799  0.51013973  0.88164761    -0.55000
C82         C  0.42175296  0.54601276  0.90472938     0.09100
H83         H  0.48133741  0.43623227  0.87193669     0.13600
H84         H  0.47085517  0.56068024  0.95817578    -0.00700
H85         H  0.39787936  0.43325019  0.96352457     0.13900
H86         H  0.37873430  0.51509337  0.85625210     0.13700
C87         C  0.42478838  0.46487330  0.10293893     0.85500
C88         C  0.41540245  0.46378343  0.05082036    -0.54800
C89         C  0.43346304  0.49843611  0.02551593     0.08400
C90         C  0.45713750  0.53428719  0.05737755     0.19300
C91         C  0.47215134  0.46916729  0.10647354    -0.55500
C92         C  0.49006273  0.50478391  0.08253634     0.08500
C93         C  0.40858942  0.51236485  0.11773032    -0.55000
C94         C  0.42559286  0.54914500  0.09608409     0.09100
H95         H  0.39536110  0.43766714  0.03587696     0.13600
H96         H  0.47086306  0.56356802  0.03886186    -0.00700
H97         H  0.48919417  0.44429054  0.12636217     0.13900
H98         H  0.38583874  0.51717916  0.14490612     0.13700
C99         C  0.60362575  0.47959235  0.89018720     0.85500
C100        C  0.61081669  0.48300856  0.94235409    -0.54800
C101        C  0.58809486  0.51577857  0.96626407     0.08400
C102        C  0.56024512  0.54406450  0.93319324     0.19300
C103        C  0.55675449  0.47454381  0.88428132    -0.55500
C104        C  0.53291084  0.50642587  0.90781202     0.08500
C105        C  0.61254590  0.52828624  0.87376147    -0.55000
C106        C  0.59096573  0.56236953  0.89557624     0.09100
H107        H  0.63229824  0.45925119  0.95778021     0.13600
H108        H  0.54240460  0.57161307  0.95099501    -0.00700
H109        H  0.54458687  0.44624066  0.86352832     0.13900
H110        H  0.63570056  0.53719930  0.84860128     0.13700
C111        C  0.60994070  0.49004024  0.09436792     0.85500
C112        C  0.56340520  0.48151789  0.10157641    -0.54800
C113        C  0.53692700  0.51114711  0.07969491     0.08400
C114        C  0.56141431  0.54865354  0.05245000     0.19300
C115        C  0.61566508  0.49101273  0.04273333    -0.55500
C116        C  0.58995564  0.51968235  0.01888921     0.08500
C117        C  0.61572058  0.53905065  0.11146627    -0.55000
C118        C  0.59148708  0.57074022  0.09026151     0.09100
H119        H  0.55325117  0.45396068  0.12336512     0.13600
H120        H  0.54149006  0.57401728  0.03480056    -0.00700
H121        H  0.63855404  0.46848160  0.02743602     0.13900
H122        H  0.63597114  0.54832920  0.14021987     0.13700
C123        C  0.54021097  0.89412458  0.40709131     0.85500
C124        C  0.54034244  0.94642503  0.39914478    -0.54800
C125        C  0.50534527  0.97002455  0.41300253     0.08400
C126        C  0.47289754  0.93698822  0.43530384     0.19300
C127        C  0.53267897  0.89127411  0.45939535    -0.55500
C128        C  0.49706813  0.91228552  0.47400765     0.08500
C129        C  0.50011774  0.87695081  0.38413620    -0.55000
C130        C  0.46475973  0.89786810  0.39913324     0.09100
H131        H  0.56795941  0.96384878  0.38810915     0.13600
H132        H  0.44437275  0.95415999  0.44811030    -0.00700
H133        H  0.55325336  0.87327339  0.48280051     0.13900
H134        H  0.49969158  0.84880060  0.35885885     0.13700
C135        C  0.53640061  0.09965681  0.40175800     0.85500
C136        C  0.53445873  0.10210812  0.45415870    -0.54800
C137        C  0.50299242  0.07788933  0.47435699     0.08400
C138        C  0.47326985  0.05494501  0.43786930     0.19300
C139        C  0.53481885  0.04742620  0.39010291    -0.55500
C140        C  0.50340973  0.02269842  0.41059908     0.08500
C141        C  0.49442602  0.11656297  0.38531897    -0.55000
C142        C  0.46094515  0.09468889  0.40336199     0.09100
H143        H  0.55775079  0.12169607  0.47328718     0.13600
H144        H  0.44644706  0.03671882  0.45306621    -0.00700
H145        H  0.55669804  0.03109635  0.36736997     0.13900
H146        H  0.49130793  0.14370941  0.36016082     0.13700
C147        C  0.43807364  0.89557757  0.58860323     0.85500
C148        C  0.44237324  0.94785875  0.59920183    -0.54800
C149        C  0.47868447  0.96660802  0.58428057     0.08400
C150        C  0.50898559  0.93128218  0.56261905     0.19300
C151        C  0.44636156  0.89081370  0.53618995    -0.55500
C152        C  0.48327639  0.91007766  0.52272206     0.08500
C153        C  0.47687959  0.87543616  0.61225123    -0.55000
C154        C  0.51372765  0.89254296  0.59817415     0.09100
H155        H  0.41973655  0.96845155  0.61772644     0.13600
H156        H  0.53900100  0.94638254  0.55149883    -0.00700
H157        H  0.42475259  0.87443965  0.51198044     0.13900
H158        H  0.47592959  0.84900033  0.63827566     0.13700
C159        C  0.53534233  0.08035283  0.60337485     0.85500
C160        C  0.52291432  0.03045525  0.61227583    -0.54800
C161        C  0.48839889  0.01640420  0.58807160     0.08400
C162        C  0.46828741  0.05475523  0.55763183     0.19300
C163        C  0.53954428  0.08078901  0.55095813    -0.55500
C164        C  0.50417347  0.07057971  0.52598777     0.08500
C165        C  0.49680451  0.10848620  0.61500432    -0.55000
C166        C  0.46198715  0.09655464  0.59111984     0.09100
H167        H  0.54101394  0.00664137  0.63254141     0.13600
H168        H  0.43971378  0.04388024  0.53861759    -0.00700
H169        H  0.56933660  0.08862234  0.53577602     0.13900
H170        H  0.49725639  0.13677343  0.64017495     0.13700
O171        O  0.29514239  0.20247485  0.64990343    -0.81900
O172        O  0.16964883  0.26775418  0.79846300    -0.66600
O173        O  0.25644232  0.26599361  0.70989872    -1.13200
C174        C  0.33042926  0.19154889  0.82893007     1.05000
O175        O  0.21243655  0.29124880  0.85404457    -0.79800
O176        O  0.29508897  0.29424370  0.84685566    -0.67400
Ni177      Ni  0.24882381  0.24381803  0.64846473     1.34900
C178        C  0.31535727  0.31228143  0.81441560     0.83700
O179        O  0.17423815  0.29638254  0.71192225    -0.80400
O180        O  0.20106842  0.28174465  0.64147965    -0.90600
C181        C  0.17712514  0.29283415  0.83398448     0.83300
O182        O  0.21385652  0.19289550  0.66070439    -0.68800
O183        O  0.30076590  0.20205948  0.85620088    -0.88100
C184        C  0.18911311  0.18236882  0.69271759     0.84100
C185        C  0.17258966  0.29683571  0.66801958     1.05700
H186        H  0.24086438  0.19931156  0.78814734     0.37500
O187        O  0.24941446  0.23125823  0.78899378    -1.10800
O188        O  0.31658233  0.29440615  0.77341267    -0.67400
Ni189      Ni  0.29531032  0.23514950  0.74809006     1.26300
O190        O  0.18590963  0.20638770  0.73000537    -0.67700
O191        O  0.33265726  0.20340478  0.78710484    -0.80000
C192        C  0.33123085  0.20761998  0.66706003     0.83500
O193        O  0.33783507  0.23420149  0.70189369    -0.67100
Ni194      Ni  0.25609561  0.24561960  0.85259180     1.27400
Ni195      Ni  0.21117228  0.26444317  0.75181384     1.26100
H196        H  0.26508419  0.29778368  0.70767300     0.38000
O197        O  0.20707859  0.84437890  0.32087499    -0.81900
O198        O  0.33902121  0.71774941  0.22379228    -0.66600
O199        O  0.23998985  0.78661610  0.25091933    -1.13200
C200        C  0.18743978  0.65542642  0.31750534     1.05000
O201        O  0.30581144  0.65141147  0.20972477    -0.79800
O202        O  0.22509216  0.67345208  0.19984829    -0.67400
Ni203      Ni  0.24078411  0.85060270  0.26661029     1.34900
C204        C  0.19098124  0.69420244  0.20591478     0.83700
O205        O  0.31286146  0.80040199  0.20221648    -0.80400
O206        O  0.27513875  0.86425186  0.21433198    -0.90600
C207        C  0.33727282  0.67759927  0.20503718     0.83300
O208        O  0.28838915  0.84879608  0.30494635    -0.68800
O209        O  0.20742077  0.63599415  0.28454293    -0.88100
C210        C  0.31768469  0.82065394  0.31225221     0.84100
C211        C  0.30489125  0.84247847  0.19508474     1.05700
H212        H  0.28276490  0.70422896  0.30494947     0.37500
O213        O  0.26618122  0.70794817  0.27731679    -1.10800
O214        O  0.18339621  0.71859125  0.24186439    -0.67400
Ni215      Ni  0.21712373  0.74288690  0.29204170     1.26300
O216        O  0.32026457  0.78122535  0.29171461    -0.67700
O217        O  0.19520714  0.69656894  0.33094994    -0.80000
C218        C  0.17521814  0.81979862  0.32861443     0.83500
O219        O  0.17017439  0.78081815  0.30867320    -0.67100
Ni220      Ni  0.25713904  0.64858252  0.24867676     1.27400
Ni221      Ni  0.29033382  0.75397559  0.23915735     1.26100
H222        H  0.22432755  0.78503586  0.22235729     0.38000
O223        O  0.67719139  0.31231615  0.20023960    -0.81900
O224        O  0.78369488  0.16590707  0.28758853    -0.66600
O225        O  0.72753473  0.27846213  0.26826097    -1.13200
C226        C  0.84331159  0.31391328  0.17250117     1.05000
O227        O  0.84374285  0.20304173  0.29747999    -0.79800
O228        O  0.85214337  0.29470077  0.28626064    -0.67400
Ni229      Ni  0.66990292  0.28182264  0.25739885     1.34900
C230        C  0.82956724  0.33011317  0.29248984     0.83700
O231        O  0.70971551  0.19782212  0.31768996    -0.80400
O232        O  0.65863993  0.25029712  0.31329380    -0.90600
C233        C  0.81966510  0.16935448  0.30608026     0.83300
O234        O  0.66263011  0.22544132  0.22390433    -0.68800
O235        O  0.86228788  0.28197534  0.19382625    -0.88100
C236        C  0.68600693  0.19210828  0.21245402     0.84100
C237        C  0.67289402  0.21198387  0.32727275     1.05700
H238        H  0.78882676  0.22661518  0.20442391     0.37500
O239        O  0.79222135  0.24410987  0.23287678    -1.10800
O240        O  0.79514358  0.33599983  0.27123779    -0.67400
Ni241      Ni  0.76549005  0.30149712  0.22332032     1.26300
O242        O  0.72359672  0.18875898  0.22645692    -0.67700
O243        O  0.80513867  0.32379918  0.17915284    -0.80000
C244        C  0.69800622  0.34853414  0.19284321     0.83500
O245        O  0.73323984  0.35498882  0.21199308    -0.67100
Ni246      Ni  0.85004698  0.24269049  0.24524471     1.27400
Ni247      Ni  0.75267340  0.22057972  0.27661923     1.26100
H248        H  0.73212320  0.29576448  0.29689028     0.38000
O249        O  0.78764668  0.27402097  0.66316818    -0.81900
O250        O  0.72552066  0.15731119  0.81678262    -0.66600
O251        O  0.73127311  0.25237396  0.72879980    -1.13200
C252        C  0.82543850  0.31861896  0.83684652     1.05000
O253        O  0.71327371  0.21194846  0.86965747    -0.79800
O254        O  0.72133338  0.30258593  0.85845492    -0.67400
Ni255      Ni  0.73741757  0.24006712  0.66559583     1.34900
C256        C  0.71350022  0.32996769  0.82593174     0.83700
O257        O  0.68873497  0.16784191  0.73422780    -0.80400
O258        O  0.68862104  0.20420949  0.66621094    -0.90600
C259        C  0.70831240  0.17101801  0.85392554     0.83300
O260        O  0.76975395  0.18597177  0.66730952    -0.68800
O261        O  0.80585654  0.29555453  0.86695110    -0.88100
C262        C  0.78685919  0.16365907  0.69922070     0.84100
C263        C  0.67416458  0.17443769  0.69371739     1.05700
H264        H  0.79601483  0.22266850  0.80270385     0.37500
O265        O  0.76974907  0.23874606  0.80324235    -1.10800
O266        O  0.73147836  0.32705445  0.78692823    -0.67400
Ni267      Ni  0.77354343  0.28716438  0.76001355     1.26300
O268        O  0.77534429  0.16755148  0.74136610    -0.67700
O269        O  0.81590853  0.31915786  0.79405746    -0.80000
C270        C  0.79032610  0.31660348  0.67223482     0.83500
O271        O  0.77881837  0.33154402  0.71159743    -0.67100
Ni272      Ni  0.75973566  0.25339215  0.86603991     1.27400
Ni273      Ni  0.72964044  0.20238121  0.76985377     1.26100
H274        H  0.70524384  0.26859284  0.73198946     0.38000
C275        C  0.58170350  0.90601424  0.95948868     0.85500
C276        C  0.53514002  0.89850882  0.96559753    -0.54800
C277        C  0.52063511  0.91373723  0.00711316     0.08400
C278        C  0.55421334  0.93584096  0.03926193     0.19300
C279        C  0.58773595  0.95818424  0.96802379    -0.55500
C280        C  0.57375361  0.97329553  0.00965648     0.08500
C281        C  0.60286116  0.88440236  0.00154475    -0.55000
C282        C  0.58906115  0.90020171  0.04314097     0.09100
H283        H  0.51491612  0.88491039  0.93835355     0.13600
H284        H  0.54239885  0.94889172  0.07297400    -0.00700
H285        H  0.60281457  0.98199137  0.94526646     0.13900
H286        H  0.62934060  0.86136106  0.99859601     0.13700
C287        C  0.59859231  0.08750032  0.07178792     0.85500
C288        C  0.55343451  0.10435610  0.06310430    -0.54800
C289        C  0.53690720  0.08952257  0.02161509     0.08400
C290        C  0.56676172  0.06079764  0.99222845     0.19300
C291        C  0.59599481  0.03500068  0.06535159    -0.55500
C292        C  0.57899136  0.02145903  0.02402358     0.08500
C293        C  0.62190033  0.10481352  0.02908286    -0.55000
C294        C  0.60578807  0.09039157  0.98799686     0.09100
H295        H  0.53635813  0.12642388  0.08639377     0.13600
H296        H  0.55346856  0.04908628  0.95846434    -0.00700
H297        H  0.60683751  0.01080939  0.09092479     0.13900
H298        H  0.64873817  0.12763308  0.03075321     0.13700
C299        C  0.41099135  0.92286858  0.05674654     0.85500
C300        C  0.45623699  0.90618817  0.05360732    -0.54800
C301        C  0.47576141  0.91918158  0.01441869     0.08400
C302        C  0.44872190  0.94775536  0.98174194     0.19300
C303        C  0.41493442  0.97565110  0.05216705    -0.55500
C304        C  0.43479470  0.98813781  0.01276511     0.08500
C305        C  0.38927037  0.90750766  0.01166557    -0.55000
C306        C  0.40895416  0.91978121  0.97269497     0.09100
H307        H  0.47181123  0.88750008  0.08082581     0.13600
H308        H  0.46482035  0.95840861  0.94982678    -0.00700
H309        H  0.40289316  0.00129496  0.07608212     0.13900
H310        H  0.35999895  0.88862500  0.01063672     0.13700
C311        C  0.43762495  0.10227534  0.94975079     0.85500
C312        C  0.48337598  0.10946965  0.96313957    -0.54800
C313        C  0.49327451  0.09580556  0.00682921     0.08400
C314        C  0.45646088  0.07436353  0.03271002     0.19300
C315        C  0.43120963  0.05023291  0.95634687    -0.55500
C316        C  0.44064353  0.03607808  0.99968095     0.08500
C317        C  0.41224136  0.12469453  0.98858806    -0.55000
C318        C  0.42179685  0.11019712  0.03149166     0.09100
H319        H  0.50636803  0.12024034  0.93848893     0.13600
H320        H  0.46430742  0.06215482  0.06784506    -0.00700
H321        H  0.42027732  0.02583123  0.93035232     0.13900
H322        H  0.38696344  0.14865829  0.98237157     0.13700
O323        O  0.29960780  0.65752318  0.80188945    -0.81900
O324        O  0.16446431  0.77875376  0.72099293    -0.66600
O325        O  0.26720208  0.71542633  0.73548516    -1.13200
C326        C  0.31233339  0.84178103  0.82510423     1.05000
O327        O  0.19362185  0.84833585  0.71687159    -0.79800
O328        O  0.27606371  0.84307153  0.70747915    -0.67400
Ni329      Ni  0.26902827  0.65119801  0.74524546     1.34900
C330        C  0.30935465  0.82010480  0.70339067     0.83700
O331        O  0.19433523  0.70090734  0.68513459    -0.80400
O332        O  0.23829840  0.64075472  0.68942579    -0.90600
C333        C  0.16403203  0.82027725  0.70775029     0.83300
O334        O  0.21985070  0.64390812  0.78100554    -0.68800
O335        O  0.28773733  0.86473936  0.79954848    -0.88100
C336        C  0.19153641  0.67123522  0.79448101     0.84100
C337        C  0.20725458  0.66138243  0.67175358     1.05700
H338        H  0.22367195  0.78602235  0.80251957     0.37500
O339        O  0.23860832  0.78816415  0.77384126    -1.10800
O340        O  0.31970163  0.78872169  0.73190263    -0.67400
Ni341      Ni  0.29041392  0.75616026  0.78080422     1.26300
O342        O  0.18820432  0.71216517  0.77919909    -0.67700
O343        O  0.31231492  0.79810283  0.82573875    -0.80000
C344        C  0.33310617  0.67976090  0.80950903     0.83500
O345        O  0.33912738  0.71864346  0.79087164    -0.67100
Ni346      Ni  0.24066801  0.85197366  0.75881046     1.27400
Ni347      Ni  0.21514831  0.74510270  0.72945066     1.26100
H348        H  0.28169332  0.71994480  0.70682409     0.38000
C349        C  0.89790316  0.02492552  0.61866624     0.85500
C350        C  0.94472572  0.02900704  0.62411526    -0.54800
C351        C  0.96764668  0.99648012  0.60057045     0.08400
C352        C  0.93950697  0.96104427  0.57302776     0.19300
C353        C  0.89041216  0.02382187  0.56590408    -0.55500
C354        C  0.91218178  0.99094717  0.54073229     0.08500
C355        C  0.88706768  0.97628071  0.63213023    -0.55000
C356        C  0.90836825  0.94258486  0.60948705     0.09100
H357        H  0.95758537  0.05677945  0.64511092     0.13600
H358        H  0.95652687  0.93336550  0.55448671    -0.00700
H359        H  0.86848696  0.04736465  0.55095414     0.13900
H360        H  0.86095900  0.96828264  0.65415544     0.13700
C361        C  0.08442671  0.03139405  0.61800084     0.85500
C362        C  0.08885685  0.03244171  0.56541834    -0.54800
C363        C  0.06769471  0.99876733  0.54061258     0.08400
C364        C  0.04347586  0.96571267  0.57278260     0.19300
C365        C  0.03691496  0.03241290  0.62460516    -0.55500
C366        C  0.01475770  0.99840629  0.60089579     0.08500
C367        C  0.09647751  0.98298995  0.63165425    -0.55000
C368        C  0.07582134  0.94846489  0.60887565     0.09100
H369        H  0.10712128  0.05942036  0.55017225     0.13600
H370        H  0.02692102  0.93735549  0.55435001    -0.00700
H371        H  0.02221160  0.05870117  0.64515323     0.13900
H372        H  0.11945441  0.97635193  0.65843219     0.13700
C373        C  0.89302012  0.02047059  0.41230718     0.85500
C374        C  0.88656488  0.01931831  0.46405981    -0.54800
C375        C  0.90950480  0.98754310  0.48779601     0.08400
C376        C  0.93614423  0.95636226  0.45391764     0.19300
C377        C  0.94026042  0.02428232  0.40637053    -0.55500
C378        C  0.96397732  0.99188666  0.42840275     0.08500
C379        C  0.88365936  0.97220147  0.39434781    -0.55000
C380        C  0.90549730  0.93783644  0.41457785     0.09100
H381        H  0.86644783  0.04473285  0.47974063     0.13600
H382        H  0.95396265  0.92890233  0.47118633    -0.00700
H383        H  0.95285657  0.05124746  0.38551694     0.13900
H384        H  0.86370336  0.96545446  0.36470860     0.13700
C385        C  0.07932400  0.03001934  0.41079503     0.85500
C386        C  0.03197758  0.02830247  0.40411754    -0.54800
C387        C  0.01130096  0.99447255  0.42804215     0.08400
C388        C  0.04195838  0.96378931  0.45603394     0.19300
C389        C  0.08476879  0.03288809  0.46327836    -0.55500
C390        C  0.06601907  0.99868475  0.48806079     0.08500
C391        C  0.09286137  0.98172285  0.39656663    -0.55000
C392        C  0.07457322  0.94685436  0.41982181     0.09100
H393        H  0.01644760  0.05209773  0.38214236     0.13600
H394        H  0.02685810  0.93538387  0.47469730    -0.00700
H395        H  0.10208459  0.06134934  0.47848252     0.13900
H396        H  0.11654563  0.97544467  0.37062291     0.13700
O397        O  0.80486833  0.70752393  0.14539670    -0.81900
O398        O  0.67378093  0.77301416  0.28667235    -0.66600
O399        O  0.77111600  0.76738390  0.21339959    -1.13200
C400        C  0.81932577  0.66127430  0.32416636     1.05000
O401        O  0.70848525  0.77377074  0.35344843    -0.79800
O402        O  0.79300946  0.76979337  0.35378741    -0.67400
Ni403      Ni  0.76840545  0.76080580  0.14799155     1.34900
C404        C  0.82343668  0.78173469  0.32888867     0.83700
O405        O  0.69710100  0.81737191  0.21193590    -0.80400
O406        O  0.73221857  0.81347491  0.14484963    -0.90600
C407        C  0.67692951  0.78440360  0.32901557     0.83300
O408        O  0.72052754  0.72162617  0.14162827    -0.68800
O409        O  0.79054940  0.67659280  0.35041360    -0.88100
C410        C  0.68989148  0.71243932  0.16739502     0.84100
C411        C  0.70369260  0.83015208  0.17072324     1.05700
H412        H  0.73284549  0.69272372  0.27463702     0.37500
O413        O  0.74718600  0.72123179  0.28210301    -1.10800
O414        O  0.82761092  0.76703492  0.28689587    -0.67400
Ni415      Ni  0.79789723  0.72056982  0.24792128     1.26300
O416        O  0.68901737  0.72513182  0.20997191    -0.67700
O417        O  0.82377976  0.67342076  0.28268360    -0.80000
C418        C  0.83912870  0.70155826  0.16690971     0.83500
O419        O  0.84472552  0.71753723  0.20770849    -0.67100
Ni420      Ni  0.74959378  0.72503470  0.34798850     1.27400
Ni421      Ni  0.72110478  0.76939870  0.24776780     1.26100
H422        H  0.78561272  0.79607450  0.21962730     0.38000
C423        C  0.97862657  0.60913577  0.90246617     0.85500
C424        C  0.97788537  0.55662715  0.89413430    -0.54800
C425        C  0.01067035  0.53241420  0.91281666     0.08400
C426        C  0.04273975  0.56495937  0.93693746     0.19300
C427        C  0.98240805  0.61262979  0.95557720    -0.55500
C428        C  0.01607553  0.59013961  0.97362793     0.08500
C429        C  0.02032488  0.62458255  0.88387997    -0.55000
C430        C  0.05405390  0.60225079  0.90091428     0.09100
H431        H  0.95062765  0.54034991  0.87960343     0.13600
H432        H  0.06995864  0.54741389  0.95218575    -0.00700
H433        H  0.95958907  0.62990520  0.97704559     0.13900
H434        H  0.02293367  0.65132780  0.85824248     0.13700
C435        C  0.05794008  0.61317769  0.09664027     0.85500
C436        C  0.05576689  0.56265737  0.11009213    -0.54800
C437        C  0.02350217  0.53761389  0.09147612     0.08400
C438        C  0.99479194  0.56811137  0.06035831     0.19300
C439        C  0.05809248  0.61170600  0.04327744    -0.55500
C440        C  0.02477221  0.58874418  0.02414004     0.08500
C441        C  0.01585327  0.63380075  0.10844029    -0.55000
C442        C  0.98262020  0.61090892  0.09052761     0.09100
H443        H  0.07983578  0.54845186  0.13179651     0.13600
H444        H  0.96767863  0.54990699  0.04465191    -0.00700
H445        H  0.08025710  0.62945712  0.02189723     0.13900
H446        H  0.01251716  0.66498346  0.12946809     0.13700
C447        C  0.97331111  0.40553909  0.91532787     0.85500
C448        C  0.97907746  0.40472411  0.96772960    -0.54800
C449        C  0.01377650  0.42729236  0.98347038     0.08400
C450        C  0.04014276  0.44942032  0.94457019     0.19300
C451        C  0.97499594  0.45590319  0.90222498    -0.55500
C452        C  0.00877320  0.48047648  0.91796970     0.08500
C453        C  0.01386004  0.38495474  0.89800465    -0.55000
C454        C  0.04914950  0.40827773  0.91070272     0.09100
H455        H  0.95819214  0.38674008  0.99058832     0.13600
H456        H  0.06797107  0.46812028  0.95748772    -0.00700
H457        H  0.94975703  0.46986792  0.88215077     0.13900
H458        H  0.01531207  0.35275393  0.87851861     0.13700
C459        C  0.05394265  0.40862865  0.10835289     0.85500
C460        C  0.05416839  0.40545612  0.05468089    -0.54800
C461        C  0.02276989  0.42940469  0.03373073     0.08400
C462        C  0.99295465  0.45322778  0.06765136     0.19300
C463        C  0.05304798  0.46095526  0.11855445    -0.55500
C464        C  0.02213317  0.48539310  0.09616649     0.08500
C465        C  0.01048193  0.39151666  0.12037867    -0.55000
C466        C  0.97847729  0.41429737  0.10014005     0.09100
H467        H  0.07461523  0.38373655  0.03467789     0.13600
H468        H  0.96686841  0.47085489  0.05010562    -0.00700
H469        H  0.07730537  0.47653304  0.13969205     0.13900
H470        H  0.00532001  0.36212140  0.14237376     0.13700
O471        O  0.30002608  0.35452647  0.22446920    -0.81900
O472        O  0.17339945  0.20159797  0.29316124    -0.66600
O473        O  0.26486776  0.28666707  0.28141970    -1.13200
C474        C  0.31170197  0.17157447  0.17435719     1.05000
O475        O  0.21810866  0.14459104  0.29897762    -0.79800
O476        O  0.29887277  0.14447199  0.27902058    -0.67400
Ni477      Ni  0.25492808  0.34996761  0.26795806     1.34900
C478        C  0.32558969  0.17277271  0.29508492     0.83700
O479        O  0.19220589  0.28252755  0.33325435    -0.80400
O480        O  0.20900981  0.35384840  0.31081033    -0.90600
C481        C  0.18257517  0.16157090  0.30748501     0.83300
O482        O  0.21734636  0.33975345  0.21744280    -0.68800
O483        O  0.28190917  0.14609213  0.18781137    -0.88100
C484        C  0.18530526  0.31418316  0.21567104     0.84100
C485        C  0.18787863  0.32602534  0.33505083     1.05700
H486        H  0.23002121  0.21787839  0.21001531     0.37500
O487        O  0.24483892  0.21269076  0.23858414    -1.10800
O488        O  0.32445881  0.21612050  0.28581454    -0.67400
Ni489      Ni  0.29394906  0.24953866  0.23674309     1.26300
O490        O  0.18141957  0.27839313  0.24080875    -0.67700
O491        O  0.32037537  0.21111889  0.19181223    -0.80000
C492        C  0.33431961  0.33368480  0.21785627     0.83500
O493        O  0.34004716  0.29230782  0.23108857    -0.67100
Ni494      Ni  0.24944561  0.14785239  0.24292613     1.27400
Ni495      Ni  0.21733187  0.24673451  0.28594649     1.26100
H496        H  0.27989142  0.28594172  0.31040247     0.38000
C497        C  0.14983329  0.33072323  0.18649850    -0.07200
C498        C  0.11698519  0.35311586  0.20912835    -0.18300
C499        C  0.08714854  0.37936903  0.18510301     0.10000
C500        C  0.08833754  0.38226461  0.13590940    -0.07100
C501        C  0.12172370  0.35946355  0.11350848    -0.18300
C502        C  0.15213065  0.33443162  0.13800930     0.10100
S503        S  0.04872505  0.41044708  0.21872903    -0.33300
S504        S  0.19372003  0.30845039  0.10535627    -0.33300
H505        H  0.20250399  0.27340586  0.13683965     0.28100
H506        H  0.06249601  0.39737748  0.26279092     0.28100
H507        H  0.11610861  0.35204212  0.24646522     0.18700
H508        H  0.12540323  0.36145778  0.07667087     0.18700
C509        C  0.94043197  0.62977159  0.10010630    -0.07200
C510        C  0.91522144  0.60643868  0.13144956    -0.18300
C511        C  0.88158558  0.62838839  0.15347484     0.10000
C512        C  0.87245636  0.67492911  0.14362789    -0.07100
C513        C  0.89616659  0.69743584  0.11060389    -0.18300
C514        C  0.93025512  0.67607167  0.08950766     0.10100
S515        S  0.85320895  0.59554710  0.19525757    -0.33300
S516        S  0.96125147  0.71223168  0.05297346    -0.33300
H517        H  0.98681155  0.67825840  0.03367571     0.28100
H518        H  0.81719976  0.62270329  0.19642406     0.28100
H519        H  0.92362946  0.57197202  0.14142858     0.18700
H520        H  0.88923516  0.73299128  0.10274405     0.18700
C521        C  0.10501971  0.06769063  0.38601144    -0.07200
C522        C  0.08641892  0.10156551  0.35789015    -0.18300
C523        C  0.11017004  0.13421897  0.33389458     0.10000
C524        C  0.15401623  0.13353541  0.33680794    -0.07100
C525        C  0.17247905  0.10138980  0.36630978    -0.18300
C526        C  0.14911463  0.06924488  0.39089000     0.10100
S527        S  0.08269205  0.17408672  0.29805972    -0.33300
S528        S  0.17717522  0.02961839  0.42738084    -0.33300
H529        H  0.21555005  0.05301919  0.42798235     0.28100
H530        H  0.09998681  0.21285213  0.32087086     0.28100
H531        H  0.05322383  0.10351253  0.35371290     0.18700
H532        H  0.20601765  0.10074078  0.36954379     0.18700
C533        C  0.89983968  0.88992764  0.39380263    -0.07200
C534        C  0.88257367  0.85508113  0.42056612    -0.18300
C535        C  0.86139905  0.81704269  0.39981176     0.10000
C536        C  0.85445069  0.81493161  0.35108102    -0.07100
C537        C  0.87606698  0.84669188  0.32427630    -0.18300
C538        C  0.89946364  0.88290119  0.34485935     0.10100
S539        S  0.84416508  0.77118368  0.43644527    -0.33300
S540        S  0.92593761  0.92113384  0.30623497    -0.33300
H541        H  0.95267014  0.94097152  0.33968669     0.28100
H542        H  0.87245416  0.78128551  0.47247627     0.28100
H543        H  0.88322819  0.85901153  0.45782772     0.18700
H544        H  0.87346303  0.84452510  0.28698848     0.18700
C545        C  0.08442016  0.90041187  0.62328872    -0.07200
C546        C  0.07083180  0.88806741  0.66751492    -0.18300
C547        C  0.09341926  0.85702348  0.69470690     0.10000
C548        C  0.13032614  0.83730894  0.67723627    -0.07100
C549        C  0.14083588  0.84525737  0.63105909    -0.18300
C550        C  0.11842269  0.87642627  0.60412694     0.10100
S551        S  0.07670491  0.84919502  0.75332117    -0.33300
S552        S  0.13898645  0.89018087  0.54849180    -0.33300
H553        H  0.10076320  0.90429185  0.52976471     0.28100
H554        H  0.09775003  0.80760703  0.76052668     0.28100
H555        H  0.04545829  0.90701490  0.68319348     0.18700
H556        H  0.16917895  0.83051145  0.61727009     0.18700
C557        C  0.16069692  0.65311794  0.82842926    -0.07200
C558        C  0.15206166  0.60532508  0.82841687    -0.18300
C559        C  0.12032807  0.58664919  0.85565672     0.10000
C560        C  0.09615655  0.61594368  0.88402696    -0.07100
C561        C  0.10677192  0.66306583  0.88659199    -0.18300
C562        C  0.13872580  0.68172536  0.85984418     0.10100
S563        S  0.10899528  0.52614695  0.84887705    -0.33300
S564        S  0.14972799  0.74227046  0.86761749    -0.33300
H565        H  0.19312910  0.73675170  0.86551090     0.28100
H566        H  0.11310553  0.51769129  0.89626718     0.28100
H567        H  0.16891700  0.58233032  0.80545965     0.18700
H568        H  0.08856859  0.68606444  0.90826352     0.18700
C569        C  0.39514914  0.12253527  0.07066251    -0.07200
C570        C  0.35277698  0.11107385  0.06731619    -0.18300
C571        C  0.32448173  0.12731316  0.09994594     0.10000
C572        C  0.33915148  0.15394949  0.13794119    -0.07100
C573        C  0.38183030  0.16376076  0.14211071    -0.18300
C574        C  0.40976098  0.14920301  0.10841684     0.10100
S575        S  0.27011419  0.11580037  0.08918681    -0.33300
S576        S  0.46282497  0.16823779  0.11432780    -0.33300
H577        H  0.46931713  0.17491559  0.06697338     0.28100
H578        H  0.25672772  0.15989082  0.10348400     0.28100
H579        H  0.34141512  0.09107903  0.03782052     0.18700
H580        H  0.39344148  0.18389876  0.17137902     0.18700
C581        C  0.39037011  0.90830792  0.92711887    -0.07200
C582        C  0.40536417  0.86996316  0.90256550    -0.18300
C583        C  0.38199483  0.84972325  0.86653159     0.10000
C584        C  0.34188310  0.86701300  0.85605076    -0.07100
C585        C  0.32873976  0.90790029  0.87798461    -0.18300
C586        C  0.35268875  0.92878554  0.91328242     0.10100
S587        S  0.40520786  0.80223707  0.83520356    -0.33300
S588        S  0.33407738  0.98020063  0.94240695    -0.33300
H589        H  0.29786965  0.98555242  0.91553377     0.28100
H590        H  0.38731604  0.81342904  0.79237713     0.28100
H591        H  0.43457866  0.85453040  0.91281542     0.18700
H592        H  0.29866933  0.92206776  0.86921712     0.18700
C593        C  0.61471449  0.89319033  0.08493506    -0.07200
C594        C  0.65593965  0.90935822  0.08434608    -0.18300
C595        C  0.68548661  0.89367027  0.11590061     0.10000
C596        C  0.67348903  0.86165705  0.14938936    -0.07100
C597        C  0.63105336  0.85075389  0.15397055    -0.18300
C598        C  0.60170822  0.86524468  0.12137731     0.10100
S599        S  0.73837972  0.91329400  0.10976219    -0.33300
S600        S  0.54950147  0.84296868  0.12550462    -0.33300
H601        H  0.54212398  0.83797924  0.07779846     0.28100
H602        H  0.75032538  0.90497662  0.15567520     0.28100
H603        H  0.66581311  0.93188037  0.05701647     0.18700
H604        H  0.62142055  0.82631700  0.17969173     0.18700
C605        C  0.86182450  0.34498897  0.85307878    -0.07200
C606        C  0.85879712  0.37116572  0.89401763    -0.18300
C607        C  0.89389958  0.39227512  0.91418964     0.10000
C608        C  0.93379762  0.38328609  0.89536757    -0.07100
C609        C  0.93555741  0.36027975  0.85196663    -0.18300
C610        C  0.90033586  0.34149266  0.83077254     0.10100
S611        S  0.88633802  0.43259932  0.96179141    -0.33300
S612        S  0.90696054  0.31175096  0.77617339    -0.33300
H613        H  0.88128486  0.34262163  0.75229647     0.28100
H614        H  0.84272030  0.43480008  0.95880551     0.28100
H615        H  0.82864059  0.37540321  0.90990039     0.18700
H616        H  0.96403679  0.35818206  0.83261523     0.18700
C617        C  0.67805676  0.14227850  0.87818774    -0.07200
C618        C  0.64022286  0.16344522  0.88945731    -0.18300
C619        C  0.61451240  0.14581927  0.92332898     0.10000
C620        C  0.62523302  0.10413120  0.94450309    -0.07100
C621        C  0.66089772  0.08028952  0.92988052    -0.18300
C622        C  0.68793144  0.09936640  0.89750637     0.10100
S623        S  0.57126587  0.18115829  0.94087019    -0.33300
S624        S  0.73587500  0.06952316  0.88580561    -0.33300
H625        H  0.76086947  0.10908624  0.88225805     0.28100
H626        H  0.57455054  0.17325730  0.98837223     0.28100
H627        H  0.63246926  0.19644354  0.87470141     0.18700
H628        H  0.66957288  0.04864428  0.94672440     0.18700
C629        C  0.87427486  0.06311762  0.64556960    -0.07200
C630        C  0.86892418  0.10573176  0.62427060    -0.18300
C631        C  0.84384751  0.14013147  0.64340451     0.10000
C632        C  0.82111895  0.13198773  0.68439383    -0.07100
C633        C  0.83049872  0.09215193  0.70901752    -0.18300
C634        C  0.85873446  0.05921622  0.69151921     0.10100
S635        S  0.84452556  0.19473586  0.61481928    -0.33300
S636        S  0.87656822  0.01686559  0.73192157    -0.33300
H637        H  0.91689958  0.01364454  0.71381127     0.28100
H638        H  0.84936384  0.21967849  0.65662111     0.28100
H639        H  0.88489251  0.11280109  0.59237471     0.18700
H640        H  0.81628508  0.08688947  0.74231310     0.18700
C641        C  0.93526379  0.39616027  0.10583189    -0.07200
C642        C  0.92712179  0.35101862  0.08942613    -0.18300
C643        C  0.89447037  0.32450596  0.10712534     0.10000
C644        C  0.86859623  0.34335764  0.14175262    -0.07100
C645        C  0.87390205  0.38999921  0.15450904    -0.18300
C646        C  0.90711106  0.41628656  0.13752000     0.10100
S647        S  0.88905673  0.26581411  0.08650137    -0.33300
S648        S  0.91527534  0.47266009  0.16298879    -0.33300
H649        H  0.93613851  0.49095198  0.12517867     0.28100
H650        H  0.84646941  0.26191778  0.09650822     0.28100
H651        H  0.94855760  0.33491625  0.06541097     0.18700
H652        H  0.85450656  0.40481342  0.18134682     0.18700
C653        C  0.62141407  0.10228488  0.11654412    -0.07200
C654        C  0.66540442  0.10392951  0.11598045    -0.18300
C655        C  0.68795867  0.13199954  0.14704628     0.10000
C656        C  0.66666796  0.15600043  0.18230231    -0.07100
C657        C  0.62406236  0.14659441  0.18836353    -0.18300
C658        C  0.60155291  0.11898287  0.15684730     0.10100
S659        S  0.74266403  0.13937516  0.13659181    -0.33300
S660        S  0.54982031  0.10221189  0.17340470    -0.33300
H661        H  0.54955683  0.06067170  0.14761958     0.28100
H662        H  0.74097691  0.18780809  0.13883314     0.28100
H663        H  0.68217911  0.08692395  0.08825049     0.18700
H664        H  0.60802122  0.16110337  0.21800153     0.18700
C665        C  0.83446660  0.13399658  0.33906377    -0.07200
C666        C  0.81336624  0.09168525  0.34173237    -0.18300
C667        C  0.82881290  0.05566979  0.36880967     0.10000
C668        C  0.86887995  0.06005784  0.38966170    -0.07100
C669        C  0.88649380  0.10451117  0.39216749    -0.18300
C670        C  0.86957456  0.14134858  0.36824073     0.10100
S671        S  0.79396138  0.00864961  0.38167005    -0.33300
S672        S  0.89346198  0.19696309  0.37890056    -0.33300
H673        H  0.85533956  0.22043357  0.38246442     0.28100
H674        H  0.76420596  0.01747079  0.34713256     0.28100
H675        H  0.78421277  0.08712287  0.32330261     0.18700
H676        H  0.91382641  0.11094084  0.41342172     0.18700
C677        C  0.09115276  0.89947729  0.41148259    -0.07200
C678        C  0.13212433  0.89214070  0.42654358    -0.18300
C679        C  0.15862361  0.86160856  0.40323825     0.10000
C680        C  0.14465178  0.83827079  0.36266550    -0.07100
C681        C  0.10225049  0.84097289  0.35087063    -0.18300
C682        C  0.07542056  0.87109106  0.37510253     0.10100
S683        S  0.21126355  0.85713715  0.42468248    -0.33300
S684        S  0.02278065  0.87613344  0.35458671    -0.33300
H685        H  0.00682138  0.89382494  0.39630700     0.28100
H686        H  0.21781801  0.81211577  0.40744428     0.28100
H687        H  0.14515487  0.91439385  0.45338082     0.18700
H688        H  0.09075972  0.82269331  0.32039456     0.18700
C689        C  0.38763136  0.90299193  0.09724204    -0.07200
C690        C  0.36909251  0.93139416  0.13128692    -0.18300
C691        C  0.34251813  0.91307879  0.16438113     0.10000
C692        C  0.33249879  0.86563101  0.16227641    -0.07100
C693        C  0.35233942  0.83726376  0.12967190    -0.18300
C694        C  0.38063850  0.85467360  0.09854773     0.10100
S695        S  0.32431038  0.95166634  0.20926428    -0.33300
S696        S  0.40574064  0.81406698  0.05932829    -0.33300
H697        H  0.39021328  0.77310156  0.07800406     0.28100
H698        H  0.33129868  0.92037662  0.24501116     0.28100
H699        H  0.37519409  0.96790938  0.13313376     0.18700
H700        H  0.34549400  0.80072979  0.12833917     0.18700
C701        C  0.15627421  0.68248138  0.17499889    -0.07200
C702        C  0.12062610  0.66660397  0.19677803    -0.18300
C703        C  0.08978551  0.64286104  0.17242042     0.10000
C704        C  0.09238927  0.63836019  0.12342427    -0.07100
C705        C  0.12778674  0.65621885  0.10133015    -0.18300
C706        C  0.16003332  0.67740408  0.12675954     0.10100
S707        S  0.04872109  0.61663959  0.20590638    -0.33300
S708        S  0.20538318  0.69638194  0.09602909    -0.33300
H709        H  0.21687493  0.73122750  0.12807058     0.28100
H710        H  0.06829056  0.61989537  0.24947024     0.28100
H711        H  0.11846696  0.66953292  0.23400516     0.18700
H712        H  0.13170416  0.65248539  0.06452742     0.18700
C713        C  0.42370876  0.12294362  0.90417784    -0.07200
C714        C  0.39834016  0.09702685  0.87318241    -0.18300
C715        C  0.36848171  0.11840889  0.84582160     0.10000
C716        C  0.36550341  0.16666636  0.84780222    -0.07100
C717        C  0.39562897  0.19274127  0.87139913    -0.18300
C718        C  0.42526106  0.17155834  0.89916404     0.10100
S719        S  0.33338951  0.08164255  0.81268385    -0.33300
S720        S  0.46008158  0.20792346  0.93321742    -0.33300
H721        H  0.44895724  0.25026631  0.91385227     0.28100
H722        H  0.30801727  0.11552455  0.79341005     0.28100
H723        H  0.39825955  0.05996384  0.87261993     0.18700
H724        H  0.39388010  0.23000334  0.87068264     0.18700
C725        C  0.08907459  0.39234708  0.88925423    -0.07200
C726        C  0.08603722  0.37691889  0.84294463    -0.18300
C727        C  0.11172459  0.34222633  0.82509955     0.10000
C728        C  0.14605071  0.32707225  0.85163538    -0.07100
C729        C  0.15271887  0.34781728  0.89563287    -0.18300
C730        C  0.12456977  0.37967323  0.91472547     0.10100
S731        S  0.09740234  0.31611893  0.77009806    -0.33300
S732        S  0.13551349  0.40219929  0.97152490    -0.33300
H733        H  0.13641476  0.44797811  0.95649313     0.28100
H734        H  0.05899464  0.33832988  0.76400886     0.28100
H735        H  0.05992289  0.38832602  0.82233109     0.18700
H736        H  0.17950337  0.33820944  0.91615929     0.18700
C737        C  0.16267874  0.14062611  0.68318429    -0.07200
C738        C  0.17995243  0.10534570  0.65568593    -0.18300
C739        C  0.15573199  0.06973835  0.63585040     0.10000
C740        C  0.11198692  0.06835015  0.64325163    -0.07100
C741        C  0.09539554  0.10176279  0.67429031    -0.18300
C742        C  0.11986305  0.13784296  0.69348378     0.10100
S743        S  0.18181231  0.02735383  0.59965686    -0.33300
S744        S  0.09381258  0.18087771  0.72818507    -0.33300
H745        H  0.11006928  0.21836923  0.70400931     0.28100
H746        H  0.22293181  0.04136835  0.60923970     0.28100
H747        H  0.21282088  0.10682970  0.64802952     0.18700
H748        H  0.06301113  0.10144614  0.68332780     0.18700
C749        C  0.57292279  0.10218621  0.62758239    -0.07200
C750        C  0.59594756  0.07943168  0.66204669    -0.18300
C751        C  0.62925896  0.10152661  0.68519883     0.10000
C752        C  0.63803478  0.14817043  0.67588004    -0.07100
C753        C  0.61380368  0.17102005  0.64341403    -0.18300
C754        C  0.58339805  0.14861715  0.61775286     0.10100
S755        S  0.66027182  0.06789779  0.72407986    -0.33300
S756        S  0.56046071  0.18074455  0.57100781    -0.33300
H757        H  0.57171683  0.22534126  0.58636196     0.28100
H758        H  0.69855091  0.08420990  0.70760935     0.28100
H759        H  0.58905062  0.04425045  0.67072544     0.18700
H760        H  0.62017844  0.20680854  0.63618455     0.18700
C761        C  0.42358899  0.12375207  0.59966610    -0.07200
C762        C  0.39144196  0.10297293  0.62414120    -0.18300
C763        C  0.36167998  0.12968945  0.64751598     0.10000
C764        C  0.36429625  0.17849046  0.64713924    -0.07100
C765        C  0.39490400  0.19920106  0.62056730    -0.18300
C766        C  0.42384489  0.17255227  0.59617769     0.10100
S767        S  0.32183635  0.09924066  0.67829470    -0.33300
S768        S  0.45998127  0.20342105  0.56098553    -0.33300
H769        H  0.47353991  0.16517662  0.53494021     0.28100
H770        H  0.31426311  0.13396775  0.71152579     0.28100
H771        H  0.39102389  0.06584058  0.62754404     0.18700
H772        H  0.39558633  0.23640157  0.61777963     0.18700
C773        C  0.39795875  0.87161600  0.60505237    -0.07200
C774        C  0.40006306  0.82509576  0.61876467    -0.18300
C775        C  0.37124811  0.80627440  0.64954117     0.10000
C776        C  0.33772249  0.83358477  0.66508735    -0.07100
C777        C  0.33130648  0.87649522  0.64392324    -0.18300
C778        C  0.36014423  0.89502946  0.61328295     0.10100
S779        S  0.37795741  0.74760808  0.66816069    -0.33300
S780        S  0.34478463  0.94639224  0.58342201    -0.33300
H781        H  0.37033902  0.93852890  0.54493337     0.28100
H782        H  0.41711012  0.74005622  0.64814792     0.28100
H783        H  0.42586832  0.80407287  0.60741597     0.18700
H784        H  0.30388213  0.89660528  0.65186595     0.18700
C785        C  0.35905282  0.15183166  0.32509702    -0.07200
C786        C  0.37255810  0.17360391  0.36631321    -0.18300
C787        C  0.40187621  0.15261316  0.39593995     0.10000
C788        C  0.41901551  0.10875298  0.38481849    -0.07100
C789        C  0.40520118  0.08701697  0.34389199    -0.18300
C790        C  0.37562259  0.10739359  0.31445201     0.10100
S791        S  0.41828865  0.18461223  0.44657913    -0.33300
S792        S  0.36323139  0.07766769  0.26063442    -0.33300
H793        H  0.37465201  0.03347152  0.27532859     0.28100
H794        H  0.42901876  0.14538477  0.47175761     0.28100
H795        H  0.36009395  0.20707838  0.37571020     0.18700
H796        H  0.42054736  0.05572109  0.33262596     0.18700
C797        C  0.64302566  0.18169910  0.35221477    -0.07200
C798        C  0.61053330  0.20247888  0.37710578    -0.18300
C799        C  0.57638861  0.17704085  0.39321304     0.10000
C800        C  0.57365173  0.12863491  0.38410707    -0.07100
C801        C  0.60741033  0.10784334  0.36078931    -0.18300
C802        C  0.64126365  0.13348138  0.34431591     0.10100
S803        S  0.53664703  0.20767871  0.42539428    -0.33300
S804        S  0.68053156  0.10382155  0.31074211    -0.33300
H805        H  0.65910217  0.06182581  0.30437244     0.28100
H806        H  0.55576864  0.25133373  0.42640724     0.28100
H807        H  0.61140784  0.23941959  0.38288154     0.18700
H808        H  0.60833561  0.07127687  0.35501435     0.18700
C809        C  0.57776860  0.86596693  0.38902002    -0.07200
C810        C  0.60613101  0.88527892  0.35755659    -0.18300
C811        C  0.63895412  0.85984175  0.33852818     0.10000
C812        C  0.64404770  0.81323419  0.35002171    -0.07100
C813        C  0.61601444  0.79317624  0.38043191    -0.18300
C814        C  0.58243196  0.81826599  0.39892146     0.10100
S815        S  0.67284635  0.88904494  0.29900442    -0.33300
S816        S  0.54447994  0.78747092  0.43248028    -0.33300
H817        H  0.56123707  0.74308397  0.42657351     0.28100
H818        H  0.70858935  0.86275246  0.30760929     0.28100
H819        H  0.60258975  0.91992083  0.34551039     0.18700
H820        H  0.61973380  0.75711323  0.38838374     0.18700
C821        C  0.42342889  0.87895049  0.38464394    -0.07200
C822        C  0.41778795  0.83065053  0.38335409    -0.18300
C823        C  0.38236251  0.81007251  0.36321742     0.10000
C824        C  0.35161523  0.83819506  0.34331703    -0.07100
C825        C  0.35557147  0.88650602  0.34892336    -0.18300
C826        C  0.39099709  0.90694445  0.36859953     0.10100
S827        S  0.37830328  0.74817407  0.36442148    -0.33300
S828        S  0.39418107  0.96876578  0.36796793    -0.33300
H829        H  0.43504791  0.96970839  0.35113259     0.28100
H830        H  0.33503658  0.74782340  0.37138868     0.28100
H831        H  0.44169259  0.80859254  0.39739430     0.18700
H832        H  0.33220780  0.90920713  0.33485185     0.18700
C833        C  0.59706285  0.61974219  0.10682966    -0.07200
C834        C  0.61893066  0.64995220  0.07869972    -0.18300
C835        C  0.64618797  0.68348544  0.09767653     0.10000
C836        C  0.65393155  0.68556317  0.14622683    -0.07100
C837        C  0.62678063  0.66063231  0.17436913    -0.18300
C838        C  0.59758378  0.62930399  0.15511192     0.10100
S839        S  0.66966123  0.72262012  0.05778914    -0.33300
S840        S  0.56499208  0.59783610  0.19406242    -0.33300
H841        H  0.53701714  0.58139494  0.15992388     0.28100
H842        H  0.66739237  0.76105675  0.08803439     0.28100
H843        H  0.61691904  0.64565531  0.04172204     0.18700
H844        H  0.62946615  0.66383429  0.21158587     0.18700
C845        C  0.63781159  0.45353226  0.11561073    -0.07200
C846        C  0.62430585  0.40754639  0.11138060    -0.18300
C847        C  0.64544460  0.37202895  0.13257884     0.10000
C848        C  0.68039148  0.38250772  0.16096616    -0.07100
C849        C  0.69740404  0.42700034  0.15989008    -0.18300
C850        C  0.67804605  0.46176604  0.13488062     0.10100
S851        S  0.62661887  0.31439265  0.12004427    -0.33300
S852        S  0.70936910  0.51206760  0.12402685    -0.33300
H853        H  0.69377118  0.51846136  0.07912746     0.28100
H854        H  0.66664741  0.29550853  0.11512145     0.28100
H855        H  0.59698656  0.39892849  0.09083217     0.18700
H856        H  0.72643199  0.43456809  0.17773277     0.18700
C857        C  0.62875628  0.43924518  0.86807679    -0.07200
C858        C  0.65969239  0.44707786  0.83458687    -0.18300
C859        C  0.68603506  0.41204397  0.81843066     0.10000
C860        C  0.68228891  0.36698740  0.83539155    -0.07100
C861        C  0.65009923  0.35804774  0.86656143    -0.18300
C862        C  0.62339619  0.39299655  0.88283300     0.10100
S863        S  0.72623192  0.42837824  0.77912136    -0.33300
S864        S  0.58362692  0.37759422  0.92385579    -0.33300
H865        H  0.59320136  0.33049027  0.92691189     0.28100
H866        H  0.71129755  0.39857929  0.74384683     0.28100
H867        H  0.66498944  0.48058535  0.82065520     0.18700
H868        H  0.64650729  0.32338252  0.87915130     0.18700
C869        C  0.36680910  0.36032629  0.19261246    -0.07200
C870        C  0.37794454  0.34772990  0.14727193    -0.18300
C871        C  0.39928549  0.37858308  0.11822221     0.10000
C872        C  0.40757523  0.42495118  0.13343168    -0.07100
C873        C  0.40114884  0.43443562  0.18095966    -0.18300
C874        C  0.38015226  0.40367153  0.20980832     0.02900
S875        S  0.41743663  0.35451489  0.06428290    -0.33300
S876        S  0.36976626  0.42054570  0.26890859    -0.33300
H877        H  0.37545628  0.46815389  0.26291090     0.28100
H878        H  0.45431227  0.38064586  0.06389333     0.28100
H879        H  0.36908082  0.31395154  0.13391888     0.18700
H880        H  0.41180665  0.46685597  0.19580919     0.18700
C881        C  0.37159351  0.65920239  0.17512433    -0.07200
C882        C  0.36520054  0.65731353  0.12693222    -0.18300
C883        C  0.38792509  0.62699654  0.09795082     0.10000
C884        C  0.41711160  0.59626153  0.11717636    -0.07100
C885        C  0.42683565  0.60235186  0.16456738    -0.18300
C886        C  0.40464336  0.63312406  0.19340461     0.10100
S887        S  0.37545488  0.62660859  0.03745514    -0.33300
S888        S  0.41662421  0.63332196  0.25426059    -0.33300
H889        H  0.40195312  0.67804067  0.26365118     0.28100
H890        H  0.41348016  0.60843012  0.02256518     0.28100
H891        H  0.34028054  0.67738610  0.11204462     0.18700
H892        H  0.44910885  0.57937697  0.18031382     0.18700
C893        C  0.40608416  0.59315761  0.89578025    -0.07200
C894        C  0.42683959  0.61997745  0.86300281    -0.18300
C895        C  0.40510910  0.65230421  0.83615438     0.10000
C896        C  0.36217137  0.65934072  0.84369378    -0.07100
C897        C  0.34340844  0.63711386  0.88088831    -0.18300
C898        C  0.36413894  0.60347116  0.90581220     0.10100
S899        S  0.43245634  0.67887238  0.78955264    -0.33300
S900        S  0.33256558  0.56900678  0.94339394    -0.33300
H901        H  0.36542777  0.55166900  0.96980580     0.28100
H902        H  0.40085772  0.67111355  0.75649051     0.28100
H903        H  0.45865414  0.61161692  0.85417455     0.18700
H904        H  0.31059544  0.64238290  0.88746487     0.18700
C905        C  0.39254590  0.42478676  0.86861643    -0.07200
C906        C  0.35164769  0.41775086  0.88411916    -0.18300
C907        C  0.32495511  0.38479145  0.86405559     0.10000
C908        C  0.33901017  0.35531947  0.82778823    -0.07100
C909        C  0.37819070  0.36465781  0.80901914    -0.18300
C910        C  0.40404002  0.40025379  0.82725001     0.10100
S911        S  0.27253935  0.38358512  0.88587791    -0.33300
S912        S  0.44788089  0.41497159  0.79209771    -0.33300
H913        H  0.44289785  0.46278124  0.79860302     0.28100
H914        H  0.25419920  0.37308325  0.84268655     0.28100
H915        H  0.33972642  0.43903212  0.91211188     0.18700
H916        H  0.38872312  0.34428250  0.77968011     0.18700
C917        C  0.13922981  0.59350856  0.56191072    -0.07200
C918        C  0.15344703  0.56885202  0.60051339    -0.18300
C919        C  0.17501326  0.59031804  0.63666212     0.10000
C920        C  0.18436213  0.63758399  0.63442848    -0.07100
C921        C  0.17012391  0.66288505  0.59689043    -0.18300
C922        C  0.14696355  0.64185573  0.56117497     0.10100
S923        S  0.18575431  0.55628788  0.68692234    -0.33300
S924        S  0.12572555  0.67824904  0.51667275    -0.33300
H925        H  0.13458782  0.72093513  0.53841413     0.28100
H926        H  0.17328361  0.59085644  0.71848008     0.28100
H927        H  0.14542378  0.53334016  0.60563637     0.18700
H928        H  0.17677958  0.69945699  0.59594546     0.18700
C929        C  0.15381271  0.62881048  0.34032423    -0.07200
C930        C  0.15600522  0.58040749  0.34040880    -0.18300
C931        C  0.12889510  0.55446429  0.36736621     0.10000
C932        C  0.10039115  0.57687451  0.39661100    -0.07100
C933        C  0.09362761  0.62410557  0.39071839    -0.18300
C934        C  0.11960200  0.65016017  0.36263430     0.10100
S935        S  0.13354102  0.49299530  0.36569212    -0.33300
S936        S  0.10761408  0.71035442  0.35775461    -0.33300
H937        H  0.11610737  0.71111509  0.31022554     0.28100
H938        H  0.09420202  0.48460774  0.38484914     0.28100
H939        H  0.18006284  0.56268451  0.32113119     0.18700
H940        H  0.07102088  0.64174390  0.41220862     0.18700
C941        C  0.85063797  0.63040242  0.34481115    -0.07200
C942        C  0.83679088  0.59791945  0.37638464    -0.18300
C943        C  0.86378103  0.58013021  0.40964511     0.10000
C944        C  0.90576876  0.59491338  0.41115043    -0.07100
C945        C  0.92083500  0.62243125  0.37583415    -0.18300
C946        C  0.89382559  0.64019160  0.34249173     0.10100
S947        S  0.84244946  0.54437238  0.45401908    -0.33300
S948        S  0.91529561  0.68140539  0.30345709    -0.33300
H949        H  0.89878396  0.65899539  0.26397749     0.28100
H950        H  0.80420599  0.53486810  0.43191502     0.28100
H951        H  0.80388702  0.59009459  0.37793109     0.18700
H952        H  0.95287872  0.63413386  0.37709458     0.18700
C953        C  0.15455555  0.34451282  0.36443782    -0.07200
C954        C  0.11537811  0.32322000  0.36107933    -0.18300
C955        C  0.08249274  0.33703537  0.38923751     0.10000
C956        C  0.08826026  0.37438607  0.42044832    -0.07100
C957        C  0.12691834  0.39719956  0.42216592    -0.18300
C958        C  0.16027525  0.38229414  0.39506669     0.10100
S959        S  0.03558466  0.30266055  0.38609918    -0.33300
S960        S  0.20998202  0.41013929  0.40424839    -0.33300
H961        H  0.23395842  0.37014435  0.39775658     0.28100
H962        H  0.01213481  0.32657533  0.41929841     0.28100
H963        H  0.11070711  0.29453225  0.33714277     0.18700
H964        H  0.13227488  0.42430624  0.44779276     0.18700
C965        C  0.07463856  0.35068555  0.58791806    -0.07200
C966        C  0.08560618  0.30421105  0.58234160    -0.18300
C967        C  0.11592097  0.28496912  0.61040033     0.10000
C968        C  0.13466117  0.31254473  0.64541674    -0.07100
C969        C  0.11693836  0.35486249  0.65767872    -0.18300
C970        C  0.08530007  0.37323536  0.63040194     0.10100
S971        S  0.13149352  0.22590432  0.59980670    -0.33300
S972        S  0.05937091  0.42408184  0.65240518    -0.33300
H973        H  0.02298056  0.41795843  0.62593029     0.28100
H974        H  0.09942425  0.21410916  0.56845698     0.28100
H975        H  0.07311280  0.28413590  0.55359133     0.18700
H976        H  0.12846053  0.37411407  0.68754761     0.18700
C977        C  0.85447023  0.39097612  0.56599261    -0.07200
C978        C  0.84701107  0.41255137  0.60946474    -0.18300
C979        C  0.82476866  0.39069899  0.64420716     0.10000
C980        C  0.80953305  0.34569079  0.63640209    -0.07100
C981        C  0.81641790  0.32444965  0.59304800    -0.18300
C982        C  0.83995409  0.34520307  0.55898517     0.10100
S983        S  0.81872447  0.42145841  0.69814536    -0.33300
S984        S  0.85353329  0.31054468  0.50853515    -0.33300
H985        H  0.83839810  0.26793231  0.52366510     0.28100
H986        H  0.77516073  0.41882415  0.69503277     0.28100
H987        H  0.86012216  0.44567482  0.61858428     0.18700
H988        H  0.80464437  0.29006313  0.58610600     0.18700
C989        C  0.84572174  0.36590839  0.32560261    -0.07200
C990        C  0.88911644  0.36909932  0.33207386    -0.18300
C991        C  0.90673110  0.39609786  0.36786024     0.10000
C992        C  0.88038331  0.42022562  0.39841514    -0.07100
C993        C  0.83794420  0.42383971  0.38648869    -0.18300
C994        C  0.82010735  0.39578626  0.35181057     0.10100
S995        S  0.96237545  0.39674093  0.37527078    -0.33300
S996        S  0.76427384  0.39526203  0.34760797    -0.33300
H997        H  0.76166450  0.34737036  0.35367227     0.28100
H998        H  0.97223076  0.37262502  0.33426351     0.28100
H999        H  0.90932210  0.34854336  0.31028622     0.18700
H1000       H  0.81749113  0.44391986  0.40852659     0.18700
C1001       C  0.84535735  0.67404710  0.62923650    -0.07200
C1002       C  0.86910623  0.63745522  0.64564993    -0.18300
C1003       C  0.90415859  0.62222384  0.62185451     0.10000
C1004       C  0.91325412  0.64119211  0.57808956    -0.07100
C1005       C  0.89519863  0.68344302  0.56745624    -0.18300
C1006       C  0.86069227  0.69946640  0.59143349     0.10100
S1007       S  0.93434213  0.57721935  0.64828937    -0.33300
S1008       S  0.83649107  0.75104898  0.57032655    -0.33300
H1009       H  0.87345934  0.77125455  0.55454982     0.28100
H1010       H  0.97063341  0.58497437  0.62302733     0.28100
H1011       H  0.85984255  0.61985229  0.67647170     0.18700
H1012       H  0.90545905  0.70191785  0.53746957     0.18700
C1013       C  0.60513572  0.61058109  0.88607195    -0.07200
C1014       C  0.59391046  0.62976098  0.84334511    -0.18300
C1015       C  0.62009889  0.66121683  0.82047595     0.10000
C1016       C  0.65894907  0.67429390  0.84041816    -0.07100
C1017       C  0.66813801  0.65784706  0.88485717    -0.18300
C1018       C  0.64209801  0.62687310  0.90747441     0.10100
S1019       S  0.60360388  0.68001834  0.76442415    -0.33300
S1020       S  0.66043374  0.60478626  0.96147701    -0.33300
H1021       H  0.62014414  0.60005941  0.97871513     0.28100
H1022       H  0.64210561  0.67076990  0.74354392     0.28100
H1023       H  0.56646698  0.61669145  0.82548287     0.18700
H1024       H  0.69670865  0.66828919  0.90217933     0.18700
C1025       C  0.61943557  0.82251778  0.65719885    -0.07200
C1026       C  0.59594925  0.80174834  0.62143562    -0.18300
C1027       C  0.56253949  0.82475531  0.60055669     0.10000
C1028       C  0.55307087  0.87057360  0.61411154    -0.07100
C1029       C  0.57677225  0.89172178  0.64946501    -0.18300
C1030       C  0.60972980  0.86833692  0.67106451     0.10100
S1031       S  0.53118977  0.79481442  0.55745861    -0.33300
S1032       S  0.63829654  0.89915971  0.71564332    -0.33300
H1033       H  0.67728111  0.88008046  0.70514660     0.28100
H1034       H  0.55148348  0.75205378  0.55981742     0.28100
H1035       H  0.60353467  0.76697536  0.61032852     0.18700
H1036       H  0.56890012  0.92626861  0.66111985     0.18700
C1037       C  0.65830805  0.84565665  0.85714444    -0.07200
C1038       C  0.62989566  0.81770903  0.87997251    -0.18300
C1039       C  0.59997732  0.83697422  0.90877141     0.10000
C1040       C  0.59920403  0.88552390  0.91518634    -0.07100
C1041       C  0.62231317  0.91296845  0.88474304    -0.18300
C1042       C  0.65318283  0.89360909  0.85729829     0.10100
S1043       S  0.56659564  0.79870983  0.94066716    -0.33300
S1044       S  0.68751726  0.93218899  0.82754311    -0.33300
H1045       H  0.72375024  0.90605510  0.83404690     0.28100
H1046       H  0.57741503  0.75758704  0.91730956     0.28100
H1047       H  0.63270587  0.78056728  0.87705031     0.18700
H1048       H  0.61950182  0.94985110  0.88422688     0.18700
C1049       C  0.83153297  0.83489230  0.65270093    -0.07200
C1050       C  0.87181882  0.83912968  0.67197170    -0.18300
C1051       C  0.90134765  0.86975778  0.65395237     0.10000
C1052       C  0.89175978  0.89526316  0.61423011    -0.07100
C1053       C  0.85360816  0.88718653  0.59197211    -0.18300
C1054       C  0.82289861  0.85968748  0.61162898     0.10100
S1055       S  0.94930541  0.87848232  0.68559674    -0.33300
S1056       S  0.77284193  0.86097547  0.58323320    -0.33300
H1057       H  0.75261824  0.87832050  0.62283060     0.28100
H1058       H  0.97076603  0.90034192  0.64992419     0.28100
H1059       H  0.87993760  0.82000107  0.70249017     0.18700
H1060       H  0.84538329  0.90785280  0.56244744     0.18700
C1061       C  0.87709660  0.68544023  0.83463553    -0.07200
C1062       C  0.90025614  0.70621019  0.87070430    -0.18300
C1063       C  0.93387731  0.68335517  0.89192235     0.10000
C1064       C  0.94273192  0.63663091  0.87979441    -0.07100
C1065       C  0.92100434  0.61764472  0.84124322    -0.18300
C1066       C  0.88839529  0.64087453  0.81941400     0.10100
S1067       S  0.96685915  0.71587391  0.93149660    -0.33300
S1068       S  0.86161680  0.61067989  0.77314053    -0.33300
H1069       H  0.82168541  0.62661234  0.78442726     0.28100
H1070       H  0.94417555  0.75721409  0.93130786     0.28100
H1071       H  0.89237557  0.74096233  0.88157815     0.18700
H1072       H  0.92950542  0.58457227  0.82665424     0.18700
loop_ 
_geom_bond_atom_site_label_1 
_geom_bond_atom_site_label_2 
_geom_bond_distance 
_geom_bond_site_symmetry_2 
_ccdc_geom_bond_type 
O1           Ni7   1.919       .  S
O1           C22   1.266       .  A
O2          Ni25   1.928       .  S
O2           C11   1.275       .  A
O3           Ni7   1.924       .  S
O3          Ni25   1.936       .  S
O3          Ni19   1.918       .  S
O3           H26   0.966       .  S
C4           O21   1.259       .  A
C4           O13   1.271       .  A
C4         C1037   1.448       .  S
O5          Ni24   1.929       .  S
O5           C11   1.271       .  A
O6          Ni24   1.904       .  S
O6            C8   1.273       .  A
Ni7          O10   1.906       .  S
Ni7          O12   1.900       .  S
C8           O18   1.286       .  A
C8         C1016   1.513       .  S
O9          Ni25   1.901       .  S
O9           C15   1.267       .  A
O10          C15   1.263       .  A
C11        C1061   1.490       .  S
O12          C14   1.270       .  A
O13         Ni24   1.923       .  S
C14          O20   1.285       .  A
C14        C1049   1.506       .  S
C15        C1001   1.475       .  S
H16          O17   0.966       .  S
O17         Ni25   1.906       .  S
O17         Ni19   1.915       .  S
O17         Ni24   1.916       .  S
O18         Ni19   1.986       .  S
Ni19         O23   1.924       .  S
Ni19         O21   1.880       .  S
O20         Ni25   1.970       .  S
C22          O23   1.269       .  A
C22        C1025   1.490       .  S
C27          C28   1.522       .  S
C27          C33   1.516       .  S
C27          C31   1.524       .  S
C27         C977   1.534       .  S
C28          H35   1.081       .  S
C28          C29   1.372       .  D
C29          C30   1.543       .  S
C29          C44   1.503       .  S
C30          C34   1.561       .  S
C30          C32   1.540       .  S
C30          H36   1.102       .  S
C31          H37   1.071       .  S
C31          C32   1.371       .  D
C32          C53   1.487       .  S
C33          H38   1.086       .  S
C33          C34   1.367       .  D
C34         C992   1.495       .  S
C39          C40   1.525       .  S
C39          C45   1.530       .  S
C39          C43   1.501       .  S
C39         C965   1.526       .  S
C40          H47   1.076       .  S
C40          C41   1.371       .  D
C41          C42   1.544       .  S
C41          C68   1.504       .  S
C42          C46   1.547       .  S
C42          C44   1.569   1_455  S
C42          H48   1.107       .  S
C43          H49   1.080   1_455  S
C43          C44   1.371   1_455  D
C45          H50   1.087       .  S
C45          C46   1.359       .  D
C46         C956   1.471       .  S
C51          C52   1.523       .  S
C51          C57   1.536       .  S
C51          C55   1.514       .  S
C51        C1004   1.528       .  S
C52          H59   1.075       .  S
C52          C53   1.362       .  D
C53          C54   1.538       .  S
C54          C58   1.542       .  S
C54          C56   1.558       .  S
C54          H60   1.102       .  S
C55          H61   1.081       .  S
C55          C56   1.374       .  D
C56          C65   1.499   1_655  S
C57          H62   1.086       .  S
C57          C58   1.360       .  D
C58         C944   1.478       .  S
C63          C64   1.529       .  S
C63          C69   1.512       .  S
C63          C67   1.525       .  S
C63         C917   1.530       .  S
C64          H71   1.081       .  S
C64          C65   1.370       .  D
C65          C66   1.543       .  S
C66          C70   1.561       .  S
C66          C68   1.555       .  S
C66          H72   1.105       .  S
C67          H73   1.074       .  S
C67          C68   1.368       .  D
C69          H74   1.087       .  S
C69          C70   1.363       .  D
C70         C932   1.479       .  S
C75          C76   1.530       .  S
C75          C81   1.516       .  S
C75          C79   1.542       .  S
C75         C905   1.560       .  S
C76          H83   1.073       .  S
C76          C77   1.382       .  D
C77          C78   1.561       .  S
C77         C104   1.521       .  S
C78          C82   1.555       .  S
C78          C80   1.566       .  S
C78          H84   1.107       .  S
C79          H85   1.080       .  S
C79          C80   1.381       .  D
C80          C89   1.533   1_556  S
C81          H86   1.088       .  S
C81          C82   1.359       .  D
C82         C893   1.486       .  S
C87          C88   1.537       .  S
C87          C93   1.530       .  S
C87          C91   1.531       .  S
C87         C872   1.571       .  S
C88          H95   1.076       .  S
C88          C89   1.384       .  D
C89          C90   1.570       .  S
C90          C94   1.573       .  S
C90          C92   1.550       .  S
C90          H96   1.106       .  S
C91          H97   1.080       .  S
C91          C92   1.382       .  D
C92         C113   1.521       .  S
C93          H98   1.086       .  S
C93          C94   1.363       .  D
C94         C884   1.514       .  S
C99         C100   1.528       .  S
C99         C105   1.526       .  S
C99         C103   1.522       .  S
C99         C857   1.556       .  S
C100        H107   1.078       .  S
C100        C101   1.381       .  D
C101        C102   1.554       .  S
C101        C116   1.527   1_556  S
C102        C106   1.575       .  S
C102        C104   1.569       .  S
C102        H108   1.108       .  S
C103        H109   1.080       .  S
C103        C104   1.378       .  D
C105        H110   1.080       .  S
C105        C106   1.359       .  D
C106       C1013   1.501       .  S
C111        C112   1.533       .  S
C111        C117   1.508       .  S
C111        C115   1.509       .  S
C111        C845   1.525       .  S
C112        H119   1.079       .  S
C112        C113   1.372       .  D
C113        C114   1.569       .  S
C114        C118   1.581       .  S
C114        C116   1.576       .  S
C114        H120   1.107       .  S
C115        H121   1.079       .  S
C115        C116   1.368       .  D
C117        H122   1.083       .  S
C117        C118   1.360       .  D
C118        C833   1.502       .  S
C123        C124   1.539       .  S
C123        C129   1.525       .  S
C123        C127   1.540       .  S
C123        C809   1.550       .  S
C124        H131   1.074       .  S
C124        C125   1.378       .  D
C125        C126   1.566       .  S
C125        C140   1.533   1_565  S
C126        C130   1.551       .  S
C126        C128   1.548       .  S
C126        H132   1.109       .  S
C127        H133   1.086       .  S
C127        C128   1.366       .  D
C128        C152   1.485       .  S
C129        H134   1.087       .  S
C129        C130   1.361       .  D
C130        C821   1.491       .  S
C135        C136   1.520       .  S
C135        C141   1.514       .  S
C135        C139   1.548       .  S
C135        C800   1.556       .  S
C136        H143   1.082       .  S
C136        C137   1.371       .  D
C137        C138   1.559       .  S
C137        C164   1.515       .  S
C138        C142   1.589       .  S
C138        C140   1.559       .  S
C138        H144   1.109       .  S
C139        H145   1.073       .  S
C139        C140   1.381       .  D
C141        H146   1.087       .  S
C141        C142   1.361       .  D
C142        C788   1.508       .  S
C147        C148   1.548       .  S
C147        C153   1.541       .  S
C147        C151   1.547       .  S
C147        C773   1.546       .  S
C148        H155   1.083       .  S
C148        C149   1.363       .  D
C149        C150   1.545       .  S
C149        C161   1.480   1_565  S
C150        C154   1.546       .  S
C150        C152   1.534       .  S
C150        H156   1.111       .  S
C151        H157   1.086       .  S
C151        C152   1.373       .  D
C153        H158   1.086       .  S
C153        C154   1.352       .  D
C154       C1028   1.493       .  S
C159        C160   1.528       .  S
C159        C165   1.523       .  S
C159        C163   1.526       .  S
C159        C749   1.523       .  S
C160        H167   1.083       .  S
C160        C161   1.366       .  D
C161        C162   1.571       .  S
C162        C166   1.554       .  S
C162        C164   1.553       .  S
C162        H168   1.110       .  S
C163        H169   1.082       .  S
C163        C164   1.372       .  D
C165        H170   1.088       .  S
C165        C166   1.353       .  D
C166        C761   1.488       .  S
O171       Ni177   1.917       .  S
O171        C192   1.267       .  A
O172       Ni195   1.908       .  S
O172        C181   1.271       .  A
O173       Ni177   1.895       .  S
O173       Ni195   1.904       .  S
O173       Ni189   1.900       .  S
O173        H196   0.966       .  S
C174        O191   1.268       .  A
C174        O183   1.277       .  A
C174        C716   1.450       .  S
O175       Ni194   1.934       .  S
O175        C181   1.273       .  A
O176       Ni194   1.895       .  S
O176        C178   1.268       .  A
Ni177       O180   1.904       .  S
Ni177       O182   1.894       .  S
C178        O188   1.288       .  A
C178        C908   1.504       .  S
O179       Ni195   1.906       .  S
O179        C185   1.273       .  A
O180        C185   1.274       .  A
C181        C728   1.498       .  S
O182        C184   1.267       .  A
O183       Ni194   1.921       .  S
C184        O190   1.280       .  A
C184        C737   1.498       .  S
C185        C968   1.459       .  S
H186        O187   0.966       .  S
O187       Ni195   1.904       .  S
O187       Ni189   1.904       .  S
O187       Ni194   1.892       .  S
O188       Ni189   1.975       .  S
Ni189       O193   1.921       .  S
Ni189       O191   1.896       .  S
O190       Ni195   1.960       .  S
C192        O193   1.275       .  A
C192        C764   1.475       .  S
O197       Ni203   1.927       .  S
O197        C218   1.270       .  A
O198       Ni221   1.939       .  S
O198        C207   1.278       .  A
O199       Ni203   1.904       .  S
O199       Ni221   1.909       .  S
O199       Ni215   1.906       .  S
O199        H222   0.966       .  S
C200        O217   1.273       .  A
C200        O209   1.279       .  A
C200        C929   1.492       .  S
O201       Ni220   1.939       .  S
O201        C207   1.273       .  A
O202       Ni220   1.898       .  S
O202        C204   1.265       .  A
Ni203       O206   1.927       .  S
Ni203       O208   1.886       .  S
C204        O214   1.274       .  A
C204        C701   1.461       .  S
O205       Ni221   1.882       .  S
O205        C211   1.269       .  A
O206        C211   1.275       .  A
C207        C881   1.502       .  S
O208        C210   1.268       .  A
O209       Ni220   1.951       .  S
C210        O216   1.283       .  A
C210        C824   1.492       .  S
C211        C692   1.475       .  S
H212        O213   0.966       .  S
O213       Ni221   1.916       .  S
O213       Ni215   1.925       .  S
O213       Ni220   1.919       .  S
O214       Ni215   1.929       .  S
Ni215       O219   1.931       .  S
Ni215       O217   1.906       .  S
O216       Ni221   1.949       .  S
C218        O219   1.270       .  A
C218        C680   1.492       .  S
O223       Ni229   1.907       .  S
O223        C244   1.267       .  A
O224       Ni247   1.908       .  S
O224        C233   1.274       .  A
O225       Ni229   1.881       .  S
O225       Ni247   1.886       .  S
O225       Ni241   1.919       .  S
O225        H248   0.972       .  S
C226        O243   1.277       .  A
C226        O235   1.278       .  A
C226        C644   1.490       .  S
O227       Ni246   1.929       .  S
O227        C233   1.274       .  A
O228       Ni246   1.905       .  S
O228        C230   1.271       .  A
Ni229       O232   1.911       .  S
Ni229       O234   1.900       .  S
C230        O240   1.276       .  A
C230        C989   1.491       .  S
O231       Ni247   1.951       .  S
O231        C237   1.286       .  A
O232        C237   1.276       .  A
C233        C665   1.492       .  S
O234        C236   1.268       .  A
O235       Ni246   1.934       .  S
C236        O242   1.277       .  A
C236        C656   1.484       .  S
C237        C797   1.498       .  S
H238        O239   0.965       .  S
O239       Ni247   1.934       .  S
O239       Ni241   1.901       .  S
O239       Ni246   1.892       .  S
O240       Ni241   1.940       .  S
Ni241       O245   1.902       .  S
Ni241       O243   1.932       .  S
O242       Ni247   1.940       .  S
C244        O245   1.270       .  A
C244        C848   1.475       .  S
O249       Ni255   1.892       .  S
O249        C270   1.261       .  A
O250       Ni273   1.909       .  S
O250        C259   1.272       .  A
O251       Ni255   1.871       .  S
O251       Ni273   1.893       .  S
O251       Ni267   1.904       .  S
O251        H274   0.966       .  S
C252        O269   1.275       .  A
C252        O261   1.277       .  A
C252        C605   1.466       .  S
O253       Ni272   1.920       .  S
O253        C259   1.274       .  A
O254       Ni272   1.906       .  S
O254        C256   1.268       .  A
Ni255       O258   1.881       .  S
Ni255       O260   1.887       .  S
C256        O266   1.275       .  A
C256        C860   1.496       .  S
O257       Ni273   1.932       .  S
O257        C263   1.278       .  A
O258        C263   1.275       .  A
C259        C617   1.471       .  S
O260        C262   1.262       .  A
O261       Ni272   1.920       .  S
C262        O268   1.282       .  A
C262        C632   1.498       .  S
C263        C752   1.473       .  S
H264        O265   0.967       .  S
O265       Ni273   1.910       .  S
O265       Ni267   1.903       .  S
O265       Ni272   1.891       .  S
O266       Ni267   1.942       .  S
Ni267       O271   1.929       .  S
Ni267       O269   1.905       .  S
O268       Ni273   1.965       .  S
C270        O271   1.271       .  A
C270        C980   1.486       .  S
C275        C276   1.525       .  S
C275        C281   1.536   1_556  S
C275        C279   1.541       .  S
C275       C1040   1.517       .  S
C276        H283   1.087       .  S
C276        C277   1.360   1_556  D
C277        C278   1.550       .  S
C277        C301   1.469       .  S
C278        C282   1.533       .  S
C278        C280   1.533       .  S
C278        H284   1.111       .  S
C279        H285   1.080       .  S
C279        C280   1.356   1_556  D
C280        C292   1.460   1_565  S
C281        H286   1.088   1_554  S
C281        C282   1.360       .  D
C282        C593   1.477       .  S
C287        C288   1.554       .  S
C287        C293   1.542       .  S
C287        C291   1.534       .  S
C287        C653   1.539       .  S
C288        H295   1.077       .  S
C288        C289   1.372       .  D
C289        C290   1.528   1_554  S
C289        C313   1.477       .  S
C290        C294   1.526       .  S
C290        C292   1.530   1_556  S
C290        H296   1.112       .  S
C291        H297   1.086       .  S
C291        C292   1.363       .  D
C293        H298   1.086       .  S
C293        C294   1.353   1_554  D
C294        C620   1.472       .  S
C299        C300   1.538       .  S
C299        C305   1.535       .  S
C299        C303   1.545       .  S
C299        C689   1.519       .  S
C300        H307   1.085       .  S
C300        C301   1.360       .  D
C301        C302   1.537   1_554  S
C302        C306   1.531       .  S
C302        C304   1.534   1_556  S
C302        H308   1.111       .  S
C303        H309   1.082   1_565  S
C303        C304   1.366       .  D
C304        C316   1.461   1_564  S
C305        H310   1.088       .  S
C305        C306   1.351   1_554  D
C306        C581   1.477       .  S
C311        C312   1.532       .  S
C311        C317   1.532       .  S
C311        C315   1.539       .  S
C311        C713   1.525       .  S
C312        H319   1.081       .  S
C312        C313   1.369   1_556  D
C313        C314   1.542       .  S
C314        C318   1.528       .  S
C314        C316   1.536   1_554  S
C314        H320   1.111       .  S
C315        H321   1.080       .  S
C315        C316   1.360       .  D
C317        H322   1.088       .  S
C317        C318   1.353   1_556  D
C318        C569   1.467       .  S
O323       Ni329   1.912       .  S
O323        C344   1.270       .  A
O324       Ni347   1.920       .  S
O324        C333   1.271       .  A
O325       Ni329   1.892       .  S
O325       Ni347   1.894       .  S
O325       Ni341   1.898       .  S
O325        H348   0.966       .  S
C326        O343   1.268       .  A
C326        O335   1.277       .  A
C326        C584   1.484       .  S
O327       Ni346   1.935       .  S
O327        C333   1.274       .  A
O328       Ni346   1.894       .  S
O328        C330   1.268       .  A
Ni329       O332   1.908       .  S
Ni329       O334   1.910       .  S
C330        O340   1.284       .  A
C330        C776   1.498       .  S
O331       Ni347   1.914       .  S
O331        C337   1.276       .  A
O332        C337   1.275       .  A
C333        C548   1.485       .  S
O334        C336   1.269       .  A
O335       Ni346   1.943       .  S
C336        O342   1.280       .  A
C336        C557   1.502       .  S
C337        C920   1.465       .  S
H338        O339   0.966       .  S
O339       Ni347   1.925       .  S
O339       Ni341   1.922       .  S
O339       Ni346   1.911       .  S
O340       Ni341   1.962       .  S
Ni341       O345   1.934       .  S
Ni341       O343   1.896       .  S
O342       Ni347   1.951       .  S
C344        O345   1.275       .  A
C344        C896   1.489       .  S
C349        C350   1.517       .  S
C349        C355   1.512   1_545  S
C349        C353   1.545       .  S
C349        C629   1.548       .  S
C350        H357   1.080       .  S
C350        C351   1.374   1_545  D
C351        C352   1.570       .  S
C351        C366   1.516   1_655  S
C352        C356   1.561       .  S
C352        C354   1.557       .  S
C352        H358   1.107       .  S
C353        H359   1.078       .  S
C353        C354   1.385   1_545  D
C354        C375   1.536       .  S
C355        H360   1.085       .  S
C355        C356   1.358       .  D
C356       C1052   1.481       .  S
C361        C362   1.532       .  S
C361        C367   1.517   1_545  S
C361        C365   1.542       .  S
C361        C740   1.558       .  S
C362        H369   1.080       .  S
C362        C363   1.377   1_545  D
C363        C364   1.560       .  S
C363        C390   1.523       .  S
C364        C368   1.560       .  S
C364        C366   1.551       .  S
C364        H370   1.106       .  S
C365        H371   1.072       .  S
C365        C366   1.385   1_545  D
C367        H372   1.088       .  S
C367        C368   1.359       .  D
C368        C545   1.489       .  S
C373        C374   1.516       .  S
C373        C379   1.514   1_545  S
C373        C377   1.534       .  S
C373        C668   1.542       .  S
C374        H381   1.079       .  S
C374        C375   1.374   1_545  D
C375        C376   1.582       .  S
C376        C380   1.586       .  S
C376        C378   1.563       .  S
C376        H382   1.108       .  S
C377        H383   1.077       .  S
C377        C378   1.376   1_545  D
C378        C387   1.524   1_655  S
C379        H384   1.083       .  S
C379        C380   1.361       .  D
C380        C533   1.515       .  S
C385        C386   1.534       .  S
C385        C391   1.520   1_545  S
C385        C389   1.530       .  S
C385        C521   1.557       .  S
C386        H393   1.070       .  S
C386        C387   1.383   1_545  D
C387        C388   1.563       .  S
C388        C392   1.563       .  S
C388        C390   1.560       .  S
C388        H394   1.107       .  S
C389        H395   1.080       .  S
C389        C390   1.376   1_545  D
C391        H396   1.088       .  S
C391        C392   1.360       .  D
C392        C677   1.493       .  S
O397       Ni403   1.945       .  S
O397        C418   1.276       .  A
O398       Ni421   1.903       .  S
O398        C407   1.268       .  A
O399       Ni403   1.902       .  S
O399       Ni421   1.899       .  S
O399       Ni415   1.906       .  S
O399        H422   0.966       .  S
C400        O417   1.267       .  A
C400        O409   1.278       .  A
C400        C941   1.480       .  S
O401       Ni420   1.945       .  S
O401        C407   1.275       .  A
O402       Ni420   1.908       .  S
O402        C404   1.271       .  A
Ni403       O406   1.928       .  S
Ni403       O408   1.917       .  S
C404        O414   1.290       .  A
C404        C536   1.516       .  S
O405       Ni421   1.913       .  S
O405        C411   1.276       .  A
O406        C411   1.280       .  A
C407        C812   1.479       .  S
O408        C410   1.271       .  A
O409       Ni420   1.932       .  S
C410        O416   1.281       .  A
C410        C836   1.513       .  S
C411        C596   1.476       .  S
H412        O413   0.966       .  S
O413       Ni421   1.922       .  S
O413       Ni415   1.914       .  S
O413       Ni420   1.911       .  S
O414       Ni415   1.981       .  S
Ni415       O419   1.912       .  S
Ni415       O417   1.904       .  S
O416       Ni421   1.959       .  S
C418        O419   1.273       .  A
C418        C512   1.483       .  S
C423        C424   1.539       .  S
C423        C429   1.518   1_655  S
C423        C427   1.544       .  S
C423       C1064   1.554       .  S
C424        H431   1.074       .  S
C424        C425   1.382   1_655  D
C425        C426   1.550       .  S
C425        C452   1.519       .  S
C426        C430   1.561       .  S
C426        C428   1.546       .  S
C426        H432   1.107       .  S
C427        H433   1.084       .  S
C427        C428   1.371   1_655  D
C428        C440   1.489   1_556  S
C429        H434   1.087       .  S
C429        C430   1.360       .  D
C430        C560   1.498       .  S
C435        C436   1.525       .  S
C435        C441   1.521       .  S
C435        C439   1.546       .  S
C435        C704   1.525       .  S
C436        H443   1.081       .  S
C436        C437   1.367       .  D
C437        C438   1.572   1_455  S
C437        C464   1.525       .  S
C438        C442   1.558       .  S
C438        C440   1.557   1_655  S
C438        H444   1.109       .  S
C439        H445   1.083       .  S
C439        C440   1.369       .  D
C441        H446   1.088       .  S
C441        C442   1.352   1_455  D
C442        C509   1.491       .  S
C447        C448   1.528       .  S
C447        C453   1.521   1_655  S
C447        C451   1.518       .  S
C447        C608   1.529       .  S
C448        H455   1.086       .  S
C448        C449   1.363   1_655  D
C449        C450   1.561       .  S
C449        C461   1.482   1_556  S
C450        C454   1.561       .  S
C450        C452   1.563       .  S
C450        H456   1.105       .  S
C451        H457   1.079       .  S
C451        C452   1.368   1_655  D
C453        H458   1.084       .  S
C453        C454   1.364       .  D
C454        C725   1.501       .  S
C459        C460   1.556       .  S
C459        C465   1.527       .  S
C459        C463   1.542       .  S
C459        C500   1.569       .  S
C460        H467   1.077       .  S
C460        C461   1.372       .  D
C461        C462   1.535   1_455  S
C462        C466   1.556       .  S
C462        C464   1.546   1_655  S
C462        H468   1.109       .  S
C463        H469   1.081       .  S
C463        C464   1.387       .  D
C465        H470   1.087       .  S
C465        C466   1.360   1_455  D
C466        C641   1.496       .  S
O471       Ni477   1.934       .  S
O471        C492   1.274       .  A
O472       Ni495   1.939       .  S
O472        C481   1.275       .  A
O473       Ni477   1.912       .  S
O473       Ni495   1.922       .  S
O473       Ni489   1.920       .  S
O473        H496   0.966       .  S
C474        O491   1.275       .  A
C474        O483   1.276       .  A
C474        C572   1.467       .  S
O475       Ni494   1.921       .  S
O475        C481   1.270       .  A
O476       Ni494   1.900       .  S
O476        C478   1.267       .  A
Ni477       O480   1.939       .  S
Ni477       O482   1.909       .  S
C478        O488   1.292       .  A
C478        C785   1.514       .  S
O479       Ni495   1.892       .  S
O479        C485   1.271       .  A
O480        C485   1.277       .  A
C481        C524   1.503       .  S
O482        C484   1.268       .  A
O483       Ni494   1.914       .  S
C484        O490   1.286       .  A
C484        C497   1.500       .  S
C485        C953   1.470       .  S
H486        O487   0.966       .  S
O487       Ni495   1.902       .  S
O487       Ni489   1.906       .  S
O487       Ni494   1.895       .  S
O488       Ni489   1.990       .  S
Ni489       O493   1.940       .  S
Ni489       O491   1.905       .  S
O490       Ni495   1.979       .  S
C492        O493   1.281       .  A
C492        C869   1.500       .  S
C497        C498   1.403       .  A
C497        C502   1.413       .  A
C498        C499   1.414       .  A
C498        H507   1.083       .  S
C499        C500   1.430       .  A
C499        S503   1.812       .  S
C500        C501   1.418       .  A
C501        C502   1.415       .  A
C501        H508   1.077       .  S
C502        S504   1.803       .  S
S503        H506   1.407       .  S
S504        H505   1.406       .  S
C509        C510   1.404       .  A
C509        C514   1.423       .  A
C510        C511   1.408       .  A
C510        H519   1.081       .  S
C511        C512   1.417       .  A
C511        S515   1.805       .  S
C512        C513   1.398       .  A
C513        C514   1.400       .  A
C513        H520   1.084       .  S
C514        S516   1.807       .  S
S515        H518   1.403       .  S
S516        H517   1.397       .  S
C521        C522   1.419       .  A
C521        C526   1.425       .  A
C522        C523   1.411       .  A
C522        H531   1.075       .  S
C523        C524   1.412       .  A
C523        S527   1.798       .  S
C524        C525   1.407       .  A
C525        C526   1.403       .  A
C525        H532   1.082       .  S
C526        S528   1.814       .  S
S527        H530   1.405       .  S
S528        H529   1.407       .  S
C533        C534   1.401       .  A
C533        C538   1.429       .  A
C534        C535   1.417       .  A
C534        H543   1.083       .  S
C535        C536   1.428       .  A
C535        S539   1.805       .  S
C536        C537   1.402       .  A
C537        C538   1.411       .  A
C537        H544   1.083       .  S
C538        S540   1.806       .  S
S539        H542   1.406       .  S
S540        H541   1.405       .  S
C545        C546   1.409       .  A
C545        C550   1.410       .  A
C546        C547   1.408       .  A
C546        H555   1.084       .  S
C547        C548   1.413       .  A
C547        S551   1.803       .  S
C548        C549   1.405       .  A
C549        C550   1.403       .  A
C549        H556   1.084       .  S
C550        S552   1.798       .  S
S551        H554   1.404       .  S
S552        H553   1.405       .  S
C557        C558   1.414       .  A
C557        C562   1.415       .  A
C558        C559   1.408       .  A
C558        H567   1.083       .  S
C559        C560   1.411       .  A
C559        S563   1.799       .  S
C560        C561   1.409       .  A
C561        C562   1.405       .  A
C561        H568   1.084       .  S
C562        S564   1.801       .  S
S563        H566   1.404       .  S
S564        H565   1.407       .  S
C569        C570   1.404       .  A
C569        C574   1.405       .  A
C570        C571   1.394       .  A
C570        H579   1.084       .  S
C571        C572   1.411       .  A
C571        S575   1.803       .  S
C572        C573   1.405       .  A
C573        C574   1.392       .  A
C573        H580   1.084       .  S
C574        S576   1.798       .  S
S575        H578   1.408       .  S
S576        H577   1.406       .  S
C581        C582   1.399       .  A
C581        C586   1.410       .  A
C582        C583   1.401       .  A
C582        H591   1.084       .  S
C583        C584   1.419       .  A
C583        S587   1.803       .  S
C584        C585   1.404       .  A
C585        C586   1.403       .  A
C585        H592   1.083       .  S
C586        S588   1.807       .  S
S587        H590   1.407       .  S
S588        H589   1.407       .  S
C593        C594   1.405       .  A
C593        C598   1.408       .  A
C594        C595   1.397       .  A
C594        H603   1.084       .  S
C595        C596   1.410       .  A
C595        S599   1.803       .  S
C596        C597   1.408       .  A
C597        C598   1.401       .  A
C597        H604   1.084       .  S
C598        S600   1.803       .  S
S599        H602   1.407       .  S
S600        H601   1.405       .  S
C605        C606   1.401       .  A
C605        C610   1.404       .  A
C606        C607   1.401       .  A
C606        H615   1.083       .  S
C607        C608   1.421       .  A
C607        S611   1.811       .  S
C608        C609   1.414       .  A
C609        C610   1.390       .  A
C609        H616   1.079       .  S
C610        S612   1.802       .  S
S611        H614   1.407       .  S
S612        H613   1.408       .  S
C617        C618   1.403       .  A
C617        C622   1.411       .  A
C618        C619   1.391       .  A
C618        H627   1.085       .  S
C619        C620   1.409       .  A
C619        S623   1.802       .  S
C620        C621   1.406       .  A
C621        C622   1.403       .  A
C621        H628   1.084       .  S
C622        S624   1.803       .  S
S623        H626   1.402       .  S
S624        H625   1.405       .  S
C629        C630   1.403       .  A
C629        C634   1.432       .  A
C630        C631   1.395       .  A
C630        H639   1.083       .  S
C631        C632   1.422       .  A
C631        S635   1.801       .  S
C632        C633   1.402       .  A
C633        C634   1.411       .  A
C633        H640   1.083       .  S
C634        S636   1.805       .  S
S635        H638   1.407       .  S
S636        H637   1.406       .  S
C641        C642   1.409       .  A
C641        C646   1.414       .  A
C642        C643   1.405       .  A
C642        H651   1.084       .  S
C643        C644   1.412       .  A
C643        S647   1.802       .  S
C644        C645   1.406       .  A
C645        C646   1.408       .  A
C645        H652   1.084       .  S
C646        S648   1.800       .  S
S647        H650   1.407       .  S
S648        H649   1.400       .  S
C653        C654   1.416       .  A
C653        C658   1.414       .  A
C654        C655   1.400       .  A
C654        H663   1.083       .  S
C655        C656   1.409       .  A
C655        S659   1.800       .  S
C656        C657   1.409       .  A
C657        C658   1.400       .  A
C657        H664   1.084       .  S
C658        S660   1.803       .  S
S659        H662   1.407       .  S
S660        H661   1.407       .  S
C665        C666   1.405       .  A
C665        C670   1.419       .  A
C666        C667   1.408       .  A
C666        H675   1.082       .  S
C667        C668   1.423       .  A
C667        S671   1.809       .  S
C668        C669   1.408       .  A
C669        C670   1.395       .  A
C669        H676   1.083       .  S
C670        S672   1.806       .  S
S671        H674   1.407       .  S
S672        H673   1.408       .  S
C677        C678   1.403       .  A
C677        C682   1.415       .  A
C678        C679   1.400       .  A
C678        H687   1.083       .  S
C679        C680   1.415       .  A
C679        S683   1.805       .  S
C680        C681   1.406       .  A
C681        C682   1.412       .  A
C681        H688   1.084       .  S
C682        S684   1.798       .  S
S683        H686   1.407       .  S
S684        H685   1.406       .  S
C689        C690   1.411       .  A
C689        C694   1.421       .  A
C690        C691   1.400       .  A
C690        H699   1.077       .  S
C691        C692   1.413       .  A
C691        S695   1.803       .  S
C692        C693   1.400       .  A
C693        C694   1.386       .  A
C693        H700   1.082       .  S
C694        S696   1.817       .  S
S695        H698   1.407       .  S
S696        H697   1.407       .  S
C701        C702   1.394       .  A
C701        C706   1.409       .  A
C702        C703   1.387       .  A
C702        H711   1.083       .  S
C703        C704   1.426       .  A
C703        S707   1.818       .  S
C704        C705   1.412       .  A
C705        C706   1.401       .  A
C705        H712   1.078       .  S
C706        S708   1.804       .  S
S707        H710   1.407       .  S
S708        H709   1.407       .  S
C713        C714   1.413       .  A
C713        C718   1.422       .  A
C714        C715   1.395       .  A
C714        H723   1.075       .  S
C715        C716   1.404       .  A
C715        S719   1.809       .  S
C716        C717   1.395       .  A
C717        C718   1.394       .  A
C717        H724   1.084       .  S
C718        S720   1.811       .  S
S719        H722   1.401       .  S
S720        H721   1.406       .  S
C725        C726   1.409       .  A
C725        C730   1.408       .  A
C726        C727   1.399       .  A
C726        H735   1.083       .  S
C727        C728   1.416       .  A
C727        S731   1.808       .  S
C728        C729   1.414       .  A
C729        C730   1.405       .  A
C729        H736   1.083       .  S
C730        S732   1.791       .  S
S731        H734   1.407       .  S
S732        H733   1.406       .  S
C737        C738   1.404       .  A
C737        C742   1.414       .  A
C738        C739   1.404       .  A
C738        H747   1.083       .  S
C739        C740   1.425       .  A
C739        S743   1.814       .  S
C740        C741   1.419       .  A
C741        C742   1.411       .  A
C741        H748   1.076       .  S
C742        S744   1.802       .  S
S743        H746   1.407       .  S
S744        H745   1.406       .  S
C749        C750   1.413       .  A
C749        C754   1.422       .  A
C750        C751   1.406       .  A
C750        H759   1.079       .  S
C751        C752   1.413       .  A
C751        S755   1.802       .  S
C752        C753   1.395       .  A
C753        C754   1.378       .  A
C753        H760   1.083       .  S
C754        S756   1.812       .  S
S755        H758   1.407       .  S
S756        H757   1.406       .  S
C761        C762   1.399       .  A
C761        C766   1.422       .  A
C762        C763   1.404       .  A
C762        H771   1.084       .  S
C763        C764   1.419       .  A
C763        S767   1.804       .  S
C764        C765   1.395       .  A
C765        C766   1.400       .  A
C765        H772   1.084       .  S
C766        S768   1.799       .  S
S767        H770   1.404       .  S
S768        H769   1.403       .  S
C773        C774   1.416       .  A
C773        C778   1.415       .  A
C774        C775   1.407       .  A
C774        H783   1.081       .  S
C775        C776   1.412       .  A
C775        S779   1.809       .  S
C776        C777   1.413       .  A
C777        C778   1.401       .  A
C777        H784   1.083       .  S
C778        S780   1.806       .  S
S779        H782   1.406       .  S
S780        H781   1.406       .  S
C785        C786   1.406       .  A
C785        C790   1.427       .  A
C786        C787   1.417       .  A
C786        H795   1.083       .  S
C787        C788   1.421       .  A
C787        S791   1.797       .  S
C788        C789   1.401       .  A
C789        C790   1.411       .  A
C789        H796   1.082       .  S
C790        S792   1.809       .  S
S791        H794   1.406       .  S
S792        H793   1.408       .  S
C797        C798   1.406       .  A
C797        C802   1.415       .  A
C798        C799   1.408       .  A
C798        H807   1.082       .  S
C799        C800   1.427       .  A
C799        S803   1.814       .  S
C800        C801   1.414       .  A
C801        C802   1.408       .  A
C801        H808   1.072       .  S
C802        S804   1.810       .  S
S803        H806   1.406       .  S
S804        H805   1.407       .  S
C809        C810   1.416       .  A
C809        C814   1.427       .  A
C810        C811   1.401       .  A
C810        H819   1.076       .  S
C811        C812   1.409       .  A
C811        S815   1.807       .  S
C812        C813   1.398       .  A
C813        C814   1.408       .  A
C813        H820   1.083       .  S
C814        S816   1.810       .  S
S815        H818   1.405       .  S
S816        H817   1.406       .  S
C821        C822   1.413       .  A
C821        C826   1.406       .  A
C822        C823   1.403       .  A
C822        H831   1.084       .  S
C823        C824   1.411       .  A
C823        S827   1.802       .  S
C824        C825   1.414       .  A
C825        C826   1.396       .  A
C825        H832   1.083       .  S
C826        S828   1.797       .  S
S827        H830   1.408       .  S
S828        H829   1.406       .  S
C833        C834   1.399       .  A
C833        C838   1.421       .  A
C834        C835   1.409       .  A
C834        H843   1.078       .  S
C835        C836   1.427       .  A
C835        S839   1.803       .  S
C836        C837   1.407       .  A
C837        C838   1.410       .  A
C837        H844   1.083       .  S
C838        S840   1.804       .  S
S839        H842   1.408       .  S
S840        H841   1.408       .  S
C845        C846   1.405       .  A
C845        C850   1.423       .  A
C846        C847   1.387       .  A
C846        H855   1.084       .  S
C847        C848   1.417       .  A
C847        S851   1.807       .  S
C848        C849   1.402       .  A
C849        C850   1.398       .  A
C849        H856   1.084       .  S
C850        S852   1.805       .  S
S851        H854   1.408       .  S
S852        H853   1.406       .  S
C857        C858   1.416       .  A
C857        C862   1.426       .  A
C858        C859   1.402       .  A
C858        H867   1.073       .  S
C859        C860   1.410       .  A
C859        S863   1.797       .  S
C860        C861   1.405       .  A
C861        C862   1.408       .  A
C861        H868   1.082       .  S
C862        S864   1.813       .  S
S863        H866   1.407       .  S
S864        H865   1.407       .  S
C869        C870   1.406       .  A
C869        C874   1.409       .  A
C870        C871   1.419       .  A
C870        H879   1.084       .  S
C871        C872   1.432       .  A
C871        S875   1.802       .  S
C872        C873   1.416       .  A
C873        C874   1.408       .  A
C873        H880   1.081       .  S
C874        S876   1.806       .  S
S875        H878   1.406       .  S
S876        H877   1.407       .  S
C881        C882   1.410       .  A
C881        C886   1.412       .  A
C882        C883   1.414       .  A
C882        H891   1.084       .  S
C883        C884   1.415       .  A
C883        S887   1.795       .  S
C884        C885   1.413       .  A
C885        C886   1.411       .  A
C885        H892   1.084       .  S
C886        S888   1.801       .  S
S887        H890   1.402       .  S
S888        H889   1.405       .  S
C893        C894   1.409       .  A
C893        C898   1.414       .  A
C894        C895   1.413       .  A
C894        H903   1.084       .  S
C895        C896   1.415       .  A
C895        S899   1.800       .  S
C896        C897   1.405       .  A
C897        C898   1.394       .  A
C897        H904   1.085       .  S
C898        S900   1.807       .  S
S899        H902   1.406       .  S
S900        H901   1.400       .  S
C905        C906   1.409       .  A
C905        C910   1.434       .  A
C906        C907   1.399       .  A
C906        H915   1.084       .  S
C907        C908   1.420       .  A
C907        S911   1.805       .  S
C908        C909   1.404       .  A
C909        C910   1.416       .  A
C909        H916   1.084       .  S
C910        S912   1.800       .  S
S911        H914   1.407       .  S
S912        H913   1.407       .  S
C917        C918   1.413       .  A
C917        C922   1.425       .  A
C918        C919   1.389       .  A
C918        H927   1.075       .  S
C919        C920   1.406       .  A
C919        S923   1.806       .  S
C920        C921   1.398       .  A
C921        C922   1.400       .  A
C921        H928   1.083       .  S
C922        S924   1.813       .  S
S923        H926   1.406       .  S
S924        H925   1.407       .  S
C929        C930   1.407       .  A
C929        C934   1.419       .  A
C930        C931   1.401       .  A
C930        H939   1.083       .  S
C931        C932   1.406       .  A
C931        S935   1.791       .  S
C932        C933   1.402       .  A
C933        C934   1.400       .  A
C933        H940   1.084       .  S
C934        S936   1.798       .  S
S935        H938   1.408       .  S
S936        H937   1.406       .  S
C941        C942   1.399       .  A
C941        C946   1.419       .  A
C942        C943   1.399       .  A
C942        H951   1.083       .  S
C943        C944   1.416       .  A
C943        S947   1.805       .  S
C944        C945   1.398       .  A
C945        C946   1.401       .  A
C945        H952   1.084       .  S
C946        S948   1.800       .  S
S947        H950   1.407       .  S
S948        H949   1.405       .  S
C953        C954   1.404       .  A
C953        C958   1.409       .  A
C954        C955   1.396       .  A
C954        H963   1.083       .  S
C955        C956   1.410       .  A
C955        S959   1.807       .  S
C956        C957   1.407       .  A
C957        C958   1.399       .  A
C957        H964   1.084       .  S
C958        S960   1.805       .  S
S959        H962   1.402       .  S
S960        H961   1.406       .  S
C965        C966   1.402       .  A
C965        C970   1.422       .  A
C966        C967   1.390       .  A
C966        H975   1.082       .  S
C967        C968   1.411       .  A
C967        S971   1.809       .  S
C968        C969   1.397       .  A
C969        C970   1.397       .  A
C969        H976   1.084       .  S
C970        S972   1.806       .  S
S971        H974   1.406       .  S
S972        H973   1.404       .  S
C977        C978   1.419       .  A
C977        C982   1.417       .  A
C978        C979   1.399       .  A
C978        H987   1.076       .  S
C979        C980   1.407       .  A
C979        S983   1.797       .  S
C980        C981   1.408       .  A
C981        C982   1.393       .  A
C981        H988   1.081       .  S
C982        S984   1.816       .  S
S983        H986   1.405       .  S
S984        H985   1.406       .  S
C989        C990   1.409       .  A
C989        C994   1.413       .  A
C990        C991   1.403       .  A
C990        H999   1.082       .  S
C991        C992   1.409       .  A
C991        S995   1.801       .  S
C992        C993   1.410       .  A
C993        C994   1.400       .  A
C993       H1000   1.084       .  S
C994        S996   1.799       .  S
S995        H998   1.406       .  S
S996        H997   1.406       .  S
C1001      C1002   1.399       .  A
C1001      C1006   1.422       .  A
C1002      C1003   1.395       .  A
C1002      H1011   1.080       .  S
C1003      C1004   1.423       .  A
C1003      S1007   1.808       .  S
C1004      C1005   1.397       .  A
C1005      C1006   1.391       .  A
C1005      H1012   1.082       .  S
C1006      S1008   1.804       .  S
S1007      H1010   1.402       .  S
S1008      H1009   1.407       .  S
C1013      C1014   1.411       .  A
C1013      C1018   1.413       .  A
C1014      C1015   1.417       .  A
C1014      H1023   1.084       .  S
C1015      C1016   1.420       .  A
C1015      S1019   1.799       .  S
C1016      C1017   1.411       .  A
C1017      C1018   1.401       .  A
C1017      H1024   1.083       .  S
C1018      S1020   1.797       .  S
S1019      H1022   1.407       .  S
S1020      H1021   1.399       .  S
C1025      C1026   1.403       .  A
C1025      C1030   1.419       .  A
C1026      C1027   1.406       .  A
C1026      H1035   1.083       .  S
C1027      C1028   1.414       .  A
C1027      S1031   1.807       .  S
C1028      C1029   1.403       .  A
C1029      C1030   1.409       .  A
C1029      H1036   1.084       .  S
C1030      S1032   1.802       .  S
S1031      H1034   1.407       .  S
S1032      H1033   1.406       .  S
C1037      C1038   1.398       .  A
C1037      C1042   1.402       .  A
C1038      C1039   1.390       .  A
C1038      H1047   1.084       .  S
C1039      C1040   1.418       .  A
C1039      S1043   1.812       .  S
C1040      C1041   1.413       .  A
C1041      C1042   1.390       .  A
C1041      H1048   1.075       .  S
C1042      S1044   1.805       .  S
S1043      H1046   1.407       .  S
S1044      H1045   1.406       .  S
C1049      C1050   1.411       .  A
C1049      C1054   1.428       .  A
C1050      C1051   1.408       .  A
C1050      H1059   1.083       .  S
C1051      C1052   1.412       .  A
C1051      S1055   1.803       .  S
C1052      C1053   1.399       .  A
C1053      C1054   1.399       .  A
C1053      H1060   1.085       .  S
C1054      S1056   1.803       .  S
S1055      H1058   1.406       .  S
S1056      H1057   1.409       .  S
C1061      C1062   1.404       .  A
C1061      C1066   1.409       .  A
C1062      C1063   1.413       .  A
C1062      H1071   1.083       .  S
C1063      C1064   1.425       .  A
C1063      S1067   1.807       .  S
C1064      C1065   1.415       .  A
C1065      C1066   1.402       .  A
C1065      H1072   1.079       .  S
C1066      S1068   1.800       .  S
S1067      H1070   1.406       .  S
S1068      H1069   1.405       .  S
