geometry optimzed in LAMMPS
_audit_creation_date              2020-12-01 
_audit_creation_method            'lammps2cif' 
_symmetry_space_group_name_H-M    'P1' 
_symmetry_Int_Tables_number       1 
_symmetry_cell_setting            triclinic 
loop_ 
_symmetry_equiv_pos_as_xyz 
  x,y,z 
_cell_length_a                    47.47672477 
_cell_length_b                    47.733560476926286 
_cell_length_c                    47.49761996252765 
_cell_angle_alpha                 89.98571690990303 
_cell_angle_beta                  90.37072845045984 
_cell_angle_gamma                 89.82675125478241 
loop_ 
_atom_site_label 
_atom_site_type_symbol 
_atom_site_fract_x 
_atom_site_fract_y 
_atom_site_fract_z 
_atom_site_charge 
O1          O  0.18960770  0.05311332  0.49788950    -0.84800
O2          O  0.16945333  0.06390372  0.44471381    -0.81800
C3          C  0.18017083  0.08767676  0.44013898     0.98700
O4          O  0.20635483  0.08961135  0.43701407    -0.81900
O5          O  0.26296825  0.07640640  0.43977546    -0.84500
C6          C  0.27077538  0.07993459  0.46516189     1.03200
O7          O  0.26238115  0.06368874  0.48408066    -0.77300
O8          O  0.22650400  0.03028055  0.51330288    -0.77500
C9          C  0.20483498  0.04524382  0.51811865     1.03200
O10         O  0.19439689  0.99509549  0.48503654    -0.84800
O11         O  0.18174767  0.00713934  0.43005978    -0.81800
C12         C  0.18235571  0.01802458  0.40596751     0.98700
O13         O  0.19557876  0.04078946  0.40184807    -0.81900
O14         O  0.25089660  0.02637903  0.40825618    -0.84500
C15         C  0.27271896  0.01685375  0.41990254     1.03200
O16         O  0.27664094  0.01902127  0.44622815    -0.77300
O17         O  0.23766524  0.98582918  0.47319940    -0.77400
C18         C  0.21450445  0.97791833  0.48311823     1.03100
Cr19       Cr  0.18639859  0.03035040  0.46375357     1.93700
Cr20       Cr  0.22848922  0.05691356  0.42404711     1.93200
Cr21       Cr  0.24883567  0.02556703  0.47740649     1.39100
O22         O  0.22146983  0.03758084  0.45497414    -1.22500
O23         O  0.95807919  0.97831767  0.32775947    -0.84800
O24         O  0.91046413  0.94740165  0.33572114    -0.81800
C25         C  0.89156031  0.92921431  0.33250008     0.98700
O26         O  0.89652369  0.90739068  0.31796249    -0.81900
O27         O  0.90224309  0.92697862  0.26368155    -0.84500
C28         C  0.91202928  0.94014338  0.24292753     1.03200
O29         O  0.93817500  0.94493530  0.24159177    -0.77300
O30         O  0.94872719  0.98434696  0.28300913    -0.77500
C31         C  0.95111681  0.99416702  0.30756959     1.03200
O32         O  0.99136322  0.92869678  0.33385703    -0.84800
O33         O  0.94389543  0.89883967  0.34739581    -0.81800
C34         C  0.94918662  0.87585687  0.33543780     0.98700
O35         O  0.94708089  0.87380581  0.30909288    -0.81900
O36         O  0.94875556  0.88986352  0.25355232    -0.84500
C37         C  0.97476745  0.89361674  0.24894389     1.03200
O38         O  0.98735110  0.91426879  0.25966283    -0.77300
O39         O  0.00034705  0.95577585  0.29783365    -0.77400
C40         C  0.00840754  0.94343148  0.32012868     1.03100
Cr41       Cr  0.95072467  0.93762155  0.33343473     1.93700
Cr42       Cr  0.92526948  0.90153477  0.28685670     1.93200
Cr43       Cr  0.96717098  0.94835859  0.27234396     1.39100
O44         O  0.94770173  0.92920759  0.29744788    -1.22500
O45         O  0.00574482  0.23246280  0.45706952    -0.84800
O46         O  0.96293748  0.26981494  0.44531270    -0.81800
C47         C  0.95691184  0.26475279  0.41990710     0.98700
O48         O  0.94438095  0.24243090  0.41322293    -0.81900
O49         O  0.92866130  0.18688761  0.41567764    -0.84500
C50         C  0.95065101  0.17256480  0.41118990     1.03200
O51         O  0.97046809  0.17290178  0.42901905    -0.77300
O52         O  0.00387223  0.18964974  0.47336436    -0.77500
C53         C  0.01756784  0.20939956  0.46236891     1.03200
O54         O  0.98229833  0.22292323  0.51233505    -0.84800
O55         O  0.93738520  0.25668181  0.49773929    -0.81800
C56         C  0.91496028  0.26388190  0.48534908     0.98700
O57         O  0.90907167  0.25493396  0.46090236    -0.81900
O58         O  0.89710818  0.19844376  0.46585836    -0.84500
C59         C  0.90113428  0.17267129  0.47040312     1.03200
O60         O  0.92528536  0.16223844  0.46694714    -0.77300
O61         O  0.95696293  0.18493108  0.51007626    -0.77400
C62         C  0.97172021  0.20178610  0.52432834     1.03100
Cr63       Cr  0.97063966  0.24323529  0.47699067     1.93700
Cr64       Cr  0.92203082  0.22035629  0.44052927     1.93200
Cr65       Cr  0.96324029  0.18013963  0.46930660     1.39100
O66         O  0.95181140  0.21466004  0.46232733    -1.22500
O67         O  0.04983087  0.99554211  0.75044386    -0.84800
O68         O  0.06240346  0.03775563  0.78877411    -0.81800
C69         C  0.08802801  0.04358503  0.78444642     0.98700
O70         O  0.09508420  0.05568238  0.76210555    -0.81900
O71         O  0.09405778  0.07298287  0.70734775    -0.84500
C72         C  0.09900297  0.05087773  0.69340503     1.03200
O73         O  0.08093476  0.03162855  0.69271203    -0.77300
O74         O  0.03533030  0.99924697  0.70675898    -0.77500
C75         C  0.04474192  0.98451457  0.72677582     1.03200
O76         O  0.99570107  0.02150452  0.73977070    -0.84800
O77         O  0.01056419  0.06546858  0.77427049    -0.81800
C78         C  0.02319906  0.08727572  0.78230747     0.98700
O79         O  0.04845516  0.09142205  0.77511144    -0.81900
O80         O  0.04368284  0.10505017  0.71909069    -0.84500
C81         C  0.03985228  0.10155664  0.69308161     1.03200
O82         O  0.04441719  0.07792975  0.68205825    -0.77300
O83         O  0.00010231  0.04763160  0.70233774    -0.77400
C84         C  0.98486100  0.03329933  0.71835763     1.03100
Cr85       Cr  0.03085365  0.03142379  0.76135724     1.93700
Cr86       Cr  0.06868829  0.07913450  0.74045855     1.93200
Cr87       Cr  0.04062898  0.03983351  0.69857374     1.39100
O88         O  0.04678295  0.05007955  0.73356076    -1.22500
O89         O  0.76565913  0.95572839  0.51899808    -0.84800
O90         O  0.72691320  0.93865759  0.55920051    -0.81800
C91         C  0.73450469  0.91377379  0.56459323     0.98700
O92         O  0.75747246  0.90885891  0.57695182    -0.81900
O93         O  0.81115452  0.91614701  0.59772694    -0.84500
C94         C  0.82711808  0.91457465  0.57651254     1.03200
O95         O  0.82587444  0.93324165  0.55785563    -0.77300
O96         O  0.80680533  0.97553214  0.52455360    -0.77500
C97         C  0.78935856  0.96251531  0.50915271     1.03200
O98         O  0.76811199  0.01037544  0.54450818    -0.84800
O99         O  0.73391680  0.99107311  0.58782486    -0.81800
C100        C  0.72651422  0.97694491  0.60900896     0.98700
O101        O  0.73650226  0.95258419  0.61305994    -0.81900
O102        O  0.79049917  0.96285242  0.63037958    -0.84500
C103        C  0.81565684  0.97073731  0.62876192     1.03200
O104        O  0.82862724  0.97008141  0.60560033    -0.77300
O105        O  0.80424222  0.01127726  0.57305692    -0.77400
C106        C  0.78801837  0.02379977  0.55622172     1.03100
Cr107      Cr  0.75065948  0.97311129  0.55413321     1.93700
Cr108      Cr  0.77427201  0.93685859  0.60235486     1.93200
Cr109      Cr  0.81381214  0.97173325  0.56600686     1.39100
O110        O  0.77955179  0.96062065  0.57426657    -1.22500
O111        O  0.02185630  0.81520841  0.56374887    -0.84800
O112        O  0.07514839  0.83288200  0.57833988    -0.81800
C113        C  0.07654513  0.82376584  0.60320415     0.98700
O114        O  0.07835034  0.79766571  0.60724035    -0.81900
O115        O  0.07531133  0.74013430  0.59720261    -0.84500
C116        C  0.05002633  0.73185557  0.59767046     1.03200
O117        O  0.03233709  0.74111866  0.58024067    -0.77300
O118        O  0.00684113  0.77684629  0.54316875    -0.77500
C119        C  0.00181851  0.79943880  0.55637303     1.03200
O120        O  0.03959415  0.80598753  0.50761462    -0.84800
O121        O  0.09440309  0.81618922  0.52404911    -0.81800
C122        C  0.11754819  0.81385829  0.53699543     0.98700
O123        O  0.11828772  0.80255181  0.56121033    -0.81900
O124        O  0.11107164  0.74720682  0.54986079    -0.84500
C125        C  0.09932568  0.72602539  0.53926110     1.03200
O126        O  0.07273456  0.72392543  0.53884309    -0.77300
O127        O  0.04915792  0.76172896  0.50177041    -0.77400
C128        C  0.04189692  0.78498512  0.49165964     1.03100
Cr129      Cr  0.05828630  0.81482892  0.54420658     1.93700
Cr130      Cr  0.09340904  0.77252927  0.57728412     1.93200
Cr131      Cr  0.04210100  0.75299209  0.54196821     1.39100
O132        O  0.06463559  0.77984920  0.55445509    -1.22500
O133        O  0.49138448  0.18695834  0.05583349    -0.84800
O134        O  0.46313038  0.17613006  0.10489492    -0.81800
C135        C  0.44488621  0.17675550  0.12394705     0.98700
O136        O  0.42337306  0.19234350  0.12144494    -0.81900
O137        O  0.44370460  0.24679011  0.11734992    -0.84500
C138        C  0.45554154  0.26821479  0.10727067     1.03200
O139        O  0.45727125  0.27103045  0.08085264    -0.77300
O140        O  0.49683719  0.23147541  0.06583682    -0.77500
C141        C  0.50711690  0.20744476  0.06181297     1.03200
O142        O  0.43956939  0.18111773  0.02560290    -0.84800
O143        O  0.41260055  0.16578291  0.07359763    -0.81800
C144        C  0.38926700  0.17800485  0.06954885     0.98700
O145        O  0.38698523  0.20392410  0.07401100    -0.81900
O146        O  0.40277194  0.25919804  0.07436263    -0.84500
C147        C  0.40397101  0.26527430  0.04847770     1.03200
O148        O  0.42311210  0.25459904  0.03354093    -0.77300
O149        O  0.46499955  0.21801755  0.01589795    -0.77400
C150        C  0.45304123  0.19557898  0.00817659     1.03100
Cr151      Cr  0.45105129  0.18018681  0.06541010     1.93700
Cr152      Cr  0.41616584  0.22493716  0.09512307     1.93200
Cr153      Cr  0.45921633  0.24189220  0.05044872     1.39100
O154        O  0.44221337  0.21569490  0.07031659    -1.22500
O155        O  0.30995307  0.97262204  0.01225372    -0.84800
O156        O  0.32713048  0.93049062  0.97701960    -0.81800
C157        C  0.32494654  0.91159154  0.95862017     0.98700
O158        O  0.30702285  0.91374006  0.93891831    -0.81900
O159        O  0.25413527  0.90924687  0.96198300    -0.84500
C160        C  0.23208881  0.91542277  0.97521260     1.03200
O161        O  0.22642925  0.94069155  0.98080137    -0.77300
O162        O  0.26788195  0.95482825  0.01912983    -0.77500
C163        C  0.29214304  0.96094067  0.02812459     1.03200
O164        O  0.30576435  0.00931770  0.96409143    -0.84800
O165        O  0.32714027  0.96793573  0.93043398    -0.81800
C166        C  0.31319726  0.96852038  0.90771477     0.98700
O167        O  0.28766963  0.96153785  0.90711766    -0.81900
O168        O  0.23437805  0.95414726  0.92722342    -0.84500
C169        C  0.22655021  0.97917835  0.93126771     1.03200
O170        O  0.23558501  0.99268119  0.95222036    -0.77300
O171        O  0.27178230  0.00948403  0.99447317    -0.77400
C172        C  0.29057426  0.02254500  0.98108355     1.03100
Cr173      Cr  0.31479702  0.96942758  0.97047491     1.93700
Cr174      Cr  0.27144168  0.93635557  0.93596894     1.93200
Cr175      Cr  0.25239809  0.97337379  0.98503430     1.39100
O176        O  0.27966028  0.95947890  0.96387027    -1.22500
O177        O  0.46148922  0.99151929  0.25609249    -0.84800
O178        O  0.44354045  0.95006093  0.29195173    -0.81800
C179        C  0.41824328  0.94608965  0.28444478     0.98700
O180        O  0.41301587  0.93382512  0.26156004    -0.81900
O181        O  0.41959323  0.91684372  0.20661952    -0.84500
C182        C  0.41835891  0.93879328  0.19163770     1.03200
O183        O  0.43704786  0.95730842  0.19377297    -0.77300
O184        O  0.48107617  0.98820708  0.21467253    -0.77500
C185        C  0.46918041  0.00272899  0.23338232     1.03200
O186        O  0.51585367  0.96476241  0.25213117    -0.84800
O187        O  0.49527945  0.92066238  0.28430269    -0.81800
C188        C  0.48064052  0.89961975  0.29092649     0.98700
O189        O  0.45668299  0.89588329  0.27970027    -0.81900
O190        O  0.46643086  0.88217744  0.22393571    -0.84500
C191        C  0.47456047  0.88591266  0.19899502     1.03200
O192        O  0.47308658  0.90989325  0.18800150    -0.77300
O193        O  0.51527288  0.93896921  0.21438248    -0.77400
C194        C  0.52880114  0.95376871  0.23170249     1.03100
Cr195      Cr  0.47808777  0.95531302  0.26889113     1.93700
Cr196      Cr  0.44078191  0.90931546  0.24274535     1.93200
Cr197      Cr  0.47579232  0.94776711  0.20529729     1.39100
O198        O  0.46487035  0.93736650  0.23902382    -1.22500
O199        O  0.72926254  0.04760657  0.01728318    -0.84800
O200        O  0.77156007  0.06046099  0.05541518    -0.81800
C201        C  0.76599328  0.08582069  0.06060181     0.98700
O202        O  0.74463245  0.09191857  0.07496949    -0.81900
O203        O  0.69206266  0.08773459  0.09948162    -0.84500
C204        C  0.67328680  0.08928199  0.08044239     1.03200
O205        O  0.67130429  0.07073877  0.06187694    -0.77300
O206        O  0.68692357  0.03065256  0.02480049    -0.77500
C207        C  0.70451769  0.04262054  0.00884255     1.03200
O208        O  0.72559778  0.99253882  0.04065047    -0.84800
O209        O  0.76252104  0.00805190  0.08251521    -0.81800
C210        C  0.77224067  0.02038599  0.10384610     0.98700
O211        O  0.76481993  0.04545480  0.10900198    -0.81900
O212        O  0.71191088  0.03896177  0.13010177    -0.84500
C213        C  0.68667216  0.03099361  0.12976480     1.03200
O214        O  0.67214804  0.03208980  0.10741027    -0.77300
O215        O  0.69232092  0.99190518  0.07182649    -0.77400
C216        C  0.70728271  0.97916805  0.05421021     1.03100
Cr217      Cr  0.74526095  0.02824850  0.05071768     1.93700
Cr218      Cr  0.72770494  0.06440642  0.10116980     1.93200
Cr219      Cr  0.68340422  0.03196869  0.06695580     1.39100
O220        O  0.71864839  0.04174736  0.07296912    -1.22500
O221        O  0.49418190  0.76400413  0.97750102    -0.84800
O222        O  0.52748967  0.72979425  0.94585519    -0.81800
C223        C  0.54790881  0.72136900  0.93135871     0.98700
O224        O  0.57223323  0.73154148  0.93509371    -0.81900
O225        O  0.57019653  0.78741206  0.91886991    -0.84500
C226        C  0.56425768  0.81314623  0.91965772     1.03200
O227        O  0.55790377  0.82456514  0.94268310    -0.77300
O228        O  0.50647205  0.80078542  0.95285274    -0.77500
C229        C  0.48778972  0.78412454  0.96116874     1.03200
O230        O  0.53397481  0.75818808  0.02338649    -0.84800
O231        O  0.56489818  0.71999496  0.99237941    -0.81800
C232        C  0.59087652  0.72515764  0.99541226     0.98700
O233        O  0.60092935  0.74758215  0.98570945    -0.81900
O234        O  0.60275315  0.80257577  0.96869143    -0.84500
C235        C  0.59679394  0.81717394  0.99020999     1.03200
O236        O  0.57234745  0.81698576  0.00031532    -0.77300
O237        O  0.51859051  0.79971968  0.01174276    -0.77400
C238        C  0.52232284  0.78090482  0.03013887     1.03100
Cr239      Cr  0.53177814  0.74508016  0.98385712     1.93700
Cr240      Cr  0.58410927  0.76773477  0.95336255     1.93200
Cr241      Cr  0.53977012  0.80785961  0.97651204     1.39100
O242        O  0.55207225  0.77341128  0.97135859    -1.22500
O243        O  0.54373774  0.99810741  0.82471991    -0.84800
O244        O  0.56142168  0.04723371  0.84885655    -0.81800
C245        C  0.58573327  0.05047942  0.83873920     0.98700
O246        O  0.58842283  0.05637508  0.81307116    -0.81900
O247        O  0.57550787  0.06037996  0.75657995    -0.84500
C248        C  0.57647426  0.03594311  0.74623154     1.03200
O249        O  0.55854994  0.01766385  0.75274653    -0.77300
O250        O  0.52013393  0.98943731  0.78573822    -0.77500
C251        C  0.53358161  0.98092567  0.80733284     1.03200
O252        O  0.48815785  0.01966480  0.82013848    -0.84800
O253        O  0.50697687  0.07050438  0.83807927    -0.81800
C254        C  0.52062549  0.09301106  0.83956211     0.98700
O255        O  0.54357762  0.09556540  0.82629480    -0.81900
O256        O  0.52831574  0.09553120  0.77050552    -0.84500
C257        C  0.51842528  0.08729991  0.74735704     1.03200
O258        O  0.51866572  0.06136044  0.74155614    -0.77300
O259        O  0.48132476  0.03627285  0.77780733    -0.77400
C260        C  0.47165134  0.02783590  0.80090968     1.03100
Cr261      Cr  0.52582213  0.03470582  0.83033508     1.93700
Cr262      Cr  0.55728090  0.07472230  0.79187276     1.93200
Cr263      Cr  0.52070487  0.02749086  0.76666800     1.39100
O264        O  0.53479582  0.04556284  0.79613701    -1.22500
O265        O  0.05399777  0.48061339  0.19437257    -0.84800
O266        O  0.09892148  0.44621526  0.18631955    -0.81800
C267        C  0.11578275  0.42595966  0.18786638     0.98700
O268        O  0.10922175  0.40423037  0.20157238    -0.81900
O269        O  0.10930105  0.42582116  0.25586662    -0.84500
C270        C  0.10154677  0.44126314  0.27604656     1.03200
O271        O  0.07569132  0.44744657  0.27937692    -0.77300
O272        O  0.06163886  0.48647214  0.23944346    -0.77500
C273        C  0.06002513  0.49622504  0.21490018     1.03200
O274        O  0.01710161  0.43404284  0.18912943    -0.84800
O275        O  0.06112977  0.39995274  0.17532940    -0.81800
C276        C  0.05319701  0.37802971  0.18787864     0.98700
O277        O  0.05679169  0.37580569  0.21416536    -0.81900
O278        O  0.06232759  0.39236838  0.26992238    -0.84500
C279        C  0.03728219  0.39737131  0.27697406     1.03200
O280        O  0.02397397  0.41742371  0.26581830    -0.77300
O281        O  0.00930906  0.45888754  0.22715254    -0.77400
C282        C  0.00093552  0.44894925  0.20374131     1.03100
Cr283      Cr  0.05814114  0.43950686  0.18908242     1.93700
Cr284      Cr  0.08278435  0.40168887  0.23459420     1.93200
Cr285      Cr  0.04389982  0.45083179  0.25104399     1.39100
O286        O  0.06153124  0.43090451  0.22505518    -1.22500
O287        O  0.99098174  0.30355193  0.98581829    -0.84800
O288        O  0.96153556  0.32043120  0.93954646    -0.81800
C289        C  0.94349623  0.32161801  0.92010016     0.98700
O290        O  0.92245401  0.30528993  0.92022940    -0.81900
O291        O  0.94298209  0.25095581  0.91692954    -0.84500
C292        C  0.95598391  0.22891576  0.92392593     1.03200
O293        O  0.95909283  0.22270123  0.94967883    -0.77300
O294        O  0.99731974  0.26130096  0.96894489    -0.77500
C295        C  0.00686674  0.28493949  0.97557749     1.03200
O296        O  0.93937975  0.30330409  0.01719013    -0.84800
O297        O  0.91130516  0.32567278  0.97192931    -0.81800
C298        C  0.88794193  0.31312730  0.97218639     0.98700
O299        O  0.88629514  0.28762931  0.96556245    -0.81900
O300        O  0.90346943  0.23285854  0.95902647    -0.84500
C301        C  0.90648497  0.22364311  0.98393375     1.03200
O302        O  0.92629682  0.23219133  0.99936481    -0.77300
O303        O  0.96727928  0.26706020  0.02104093    -0.77400
C304        C  0.95427885  0.28736804  0.03229116     1.03100
Cr305      Cr  0.95017535  0.31057083  0.97790855     1.93700
Cr306      Cr  0.91583329  0.26956878  0.94225295     1.93200
Cr307      Cr  0.96102762  0.24782825  0.98362854     1.39100
O308        O  0.94231239  0.27593854  0.96787415    -1.22500
O309        O  0.23784753  0.45025538  0.00095365    -0.84800
O310        O  0.27423111  0.43094808  0.96041219    -0.81800
C311        C  0.26929920  0.40491666  0.95915550     0.98700
O312        O  0.24661103  0.39620334  0.94827211    -0.81900
O313        O  0.19057268  0.39598003  0.93291953    -0.84500
C314        C  0.17822328  0.39467223  0.95642661     1.03200
O315        O  0.17864524  0.41556958  0.97260142    -0.77300
O316        O  0.19448039  0.46491841  0.99676983    -0.77500
C317        C  0.21471309  0.45667615  0.01207401     1.03200
O318        O  0.22621140  0.49977138  0.96817634    -0.84800
O319        O  0.25865023  0.47789929  0.92560305    -0.81800
C320        C  0.26629029  0.46184199  0.90601248     0.98700
O321        O  0.25849288  0.43658922  0.90558369    -0.81900
O322        O  0.20202246  0.44098963  0.89341191    -0.84500
C323        C  0.17644270  0.44697643  0.89705391     1.03200
O324        O  0.16567603  0.44432517  0.92108915    -0.77300
O325        O  0.18760318  0.49252256  0.94407523    -0.77400
C326        C  0.20402348  0.50919586  0.95655909     1.03100
Cr327      Cr  0.24725261  0.46344463  0.96259079     1.93700
Cr328      Cr  0.22398157  0.41921806  0.92178202     1.93200
Cr329      Cr  0.18409141  0.45367250  0.95782875     1.39100
O330        O  0.21857347  0.44537437  0.94744737    -1.22500
O331        O  0.00441941  0.72523716  0.05021156    -0.84800
O332        O  0.03542130  0.75607298  0.08763370    -0.81800
C333        C  0.05456263  0.76121647  0.10536572     0.98700
O334        O  0.07962061  0.75278577  0.10149926    -0.81900
O335        O  0.07770194  0.69653349  0.11209875    -0.84500
C336        C  0.07043364  0.67140806  0.10927071     1.03200
O337        O  0.06578208  0.66163195  0.08501310    -0.77300
O338        O  0.01528328  0.68707216  0.07313098    -0.77500
C339        C  0.99695001  0.70455564  0.06512295     1.03200
O340        O  0.04785622  0.73417525  0.00815728    -0.84800
O341        O  0.07566540  0.76985056  0.04532713    -0.81800
C342        C  0.10172479  0.76450321  0.04337021     0.98700
O343        O  0.11118888  0.74107398  0.05096826    -0.81900
O344        O  0.11286204  0.68495781  0.06313351    -0.84500
C345        C  0.10786713  0.67279823  0.03980659     1.03200
O346        O  0.08361811  0.67345318  0.02901552    -0.77300
O347        O  0.03108498  0.69228343  0.01544287    -0.77400
C348        C  0.03802556  0.71151293  0.99863054     1.03100
Cr349      Cr  0.04236413  0.74424410  0.04856140     1.93700
Cr350      Cr  0.09309461  0.71855534  0.08040352     1.93200
Cr351      Cr  0.04983641  0.68110493  0.05135186     1.39100
O352        O  0.06194709  0.71477424  0.06010863    -1.22500
O353        O  0.97000672  0.50807177  0.79507739    -0.84800
O354        O  0.93540520  0.53142224  0.75525177    -0.81800
C355        C  0.91749551  0.54816512  0.74518429     0.98700
O356        O  0.91750022  0.57374445  0.75202494    -0.81900
O357        O  0.90141912  0.57691924  0.80758788    -0.84500
C358        C  0.90304568  0.57459141  0.83395722     1.03200
O359        O  0.92695729  0.57552396  0.84566434    -0.77300
O360        O  0.94479833  0.52240330  0.83098390    -0.77500
C361        C  0.95447723  0.50277523  0.81607156     1.03200
O362        O  0.01104280  0.55138098  0.78416443    -0.84800
O363        O  0.97710342  0.57268864  0.74182313    -0.81800
C364        C  0.97634030  0.59911577  0.74382103     0.98700
O365        O  0.96322500  0.61089554  0.76358094    -0.81900
O366        O  0.94523286  0.61863592  0.81762017    -0.84500
C367        C  0.96813399  0.61846335  0.83150511     1.03200
O368        O  0.98193510  0.59609523  0.83479527    -0.77300
O369        O  0.00112669  0.54207410  0.82784239    -0.77400
C370        C  0.01906291  0.54495357  0.80867346     1.03100
Cr371      Cr  0.97216841  0.54269800  0.77093666     1.93700
Cr372      Cr  0.93352761  0.59288313  0.78596701     1.93200
Cr373      Cr  0.96317449  0.55948582  0.83209696     1.39100
O374        O  0.95631081  0.56500730  0.79606465    -1.22500
O375        O  0.80771084  0.55393139  0.01454782    -0.84800
O376        O  0.83719012  0.56761797  0.06302070    -0.81800
C377        C  0.82713300  0.59153064  0.06757230     0.98700
O378        O  0.80214425  0.59373866  0.07609383    -0.81900
O379        O  0.74604043  0.58074994  0.08194693    -0.84500
C380        C  0.73473200  0.58266588  0.05775859     1.03200
O381        O  0.73921139  0.56445661  0.03910292    -0.77300
O382        O  0.77014066  0.52839980  0.00715939    -0.77500
C383        C  0.78905362  0.54460460  0.99803261     1.03200
O384        O  0.80742116  0.49712362  0.03185301    -0.84800
O385        O  0.82977666  0.51236539  0.08294550    -0.81800
C386        C  0.83041380  0.52320052  0.10718115     0.98700
O387        O  0.81738144  0.54600236  0.11209016    -0.81900
O388        O  0.76164260  0.53238313  0.11490841    -0.84500
C389        C  0.73838234  0.52261628  0.10683712     1.03200
O390        O  0.73130895  0.52298418  0.08118325    -0.77300
O391        O  0.76764032  0.48719756  0.05216378    -0.77400
C392        C  0.79011867  0.47917392  0.04054041     1.03100
Cr393      Cr  0.81798817  0.53336856  0.04912209     1.93700
Cr394      Cr  0.78203079  0.56164793  0.09392387     1.93200
Cr395      Cr  0.75435668  0.52664731  0.04635095     1.39100
O396        O  0.78462447  0.54050591  0.06341332    -1.22500
O397        O  0.54133195  0.50328178  0.29083732    -0.84800
O398        O  0.57722554  0.47643613  0.25437269    -0.81800
C399        C  0.59422802  0.45824427  0.24549581     0.98700
O400        O  0.59151120  0.43268727  0.25196048    -0.81900
O401        O  0.60873684  0.43143551  0.30745826    -0.84500
C402        C  0.60780652  0.43624821  0.33348595     1.03200
O403        O  0.58449269  0.43922008  0.34577189    -0.77300
O404        O  0.56640564  0.49048301  0.32752925    -0.77500
C405        C  0.55592287  0.50956718  0.31239550     1.03200
O406        O  0.50058717  0.45935411  0.28098595    -0.84800
O407        O  0.53438358  0.43531122  0.24095588    -0.81800
C408        C  0.53288342  0.40915954  0.24547198     0.98700
O409        O  0.54438028  0.39839825  0.26680395    -0.81900
O410        O  0.56388720  0.39300533  0.32067972    -0.84500
C411        C  0.54180855  0.39498373  0.33534984     1.03200
O412        O  0.52882813  0.41789201  0.33735957    -0.77300
O413        O  0.51003906  0.47046147  0.32477781    -0.77400
C414        C  0.49250796  0.46578295  0.30531499     1.03100
Cr415      Cr  0.53957099  0.46699282  0.26868410     1.93700
Cr416      Cr  0.57552747  0.41617590  0.28728057     1.93200
Cr417      Cr  0.54795515  0.45387698  0.33114340     1.39100
O418        O  0.55435885  0.44568874  0.29562029    -1.22500
O419        O  0.52363302  0.68399596  0.45887343    -0.84800
O420        O  0.57686977  0.66701382  0.44414269    -0.81800
C421        C  0.58045157  0.68122450  0.42208276     0.98700
O422        O  0.58522699  0.70709640  0.42355632    -0.81900
O423        O  0.58033245  0.76081026  0.44399936    -0.84500
C424        C  0.55457137  0.76727788  0.44058714     1.03200
O425        O  0.53617975  0.75613746  0.45591037    -0.77300
O426        O  0.50896919  0.71672575  0.48731121    -0.77500
C427        C  0.50360517  0.69727339  0.47000033     1.03200
O428        O  0.53930852  0.68202520  0.51686227    -0.84800
O429        O  0.59330118  0.67139127  0.50181906    -0.81800
C430        C  0.61750870  0.67493294  0.49197703     0.98700
O431        O  0.62111293  0.69136476  0.47120532    -0.81900
O432        O  0.61295523  0.74381764  0.49292638    -0.84500
C433        C  0.60076000  0.76432833  0.50414410     1.03200
O434        O  0.57446402  0.76778394  0.50120906    -0.77300
O435        O  0.55034999  0.72392230  0.53106869    -0.77400
C436        C  0.54151427  0.69960852  0.53650278     1.03100
Cr437      Cr  0.55895024  0.67874932  0.48014080     1.93700
Cr438      Cr  0.59770651  0.72503149  0.45922297     1.93200
Cr439      Cr  0.54432215  0.73940903  0.49275239     1.39100
O440        O  0.56712302  0.71448785  0.47737381    -1.22500
O441        O  0.27451976  0.52331522  0.51930163    -0.84800
O442        O  0.24135974  0.56034576  0.49018961    -0.81800
C443        C  0.23518751  0.57869763  0.47207912     0.98700
O444        O  0.24495481  0.57756124  0.44728235    -0.81900
O445        O  0.30112999  0.59175643  0.44940356    -0.84500
C446        C  0.32639094  0.58997755  0.45753316     1.03200
O447        O  0.33719746  0.56655191  0.46332219    -0.77300
O448        O  0.31108011  0.54995040  0.51174042    -0.77500
C449        C  0.29347662  0.53961599  0.52850016     1.03200
O450        O  0.26964595  0.48479798  0.47167398    -0.84800
O451        O  0.23110245  0.52034709  0.44692021    -0.81800
C452        C  0.23721866  0.51835626  0.42122194     0.98700
O453        O  0.25963813  0.52943268  0.41255582    -0.81900
O454        O  0.31499405  0.54561419  0.41280456    -0.84500
C455        C  0.33031360  0.52426336  0.41729324     1.03200
O456        O  0.33059951  0.51209578  0.44082353    -0.77300
O457        O  0.31035931  0.49342401  0.49110214    -0.77400
C458        C  0.29300288  0.47613589  0.48088347     1.03100
Cr459      Cr  0.25639470  0.52323880  0.48067125     1.93700
Cr460      Cr  0.28041380  0.55947772  0.43278302     1.93200
Cr461      Cr  0.31966602  0.53107624  0.47584638     1.39100
O462        O  0.28546658  0.53820551  0.46295481    -1.22500
O463        O  0.45385410  0.51186369  0.69520877    -0.84800
O464        O  0.43672958  0.56517159  0.68205189    -0.81800
C465        C  0.41189110  0.56424339  0.69116085     0.98700
O466        O  0.40795802  0.56510673  0.71744061    -0.81900
O467        O  0.41974186  0.56034571  0.77464736    -0.84500
C468        C  0.41624276  0.53450201  0.77809656     1.03200
O469        O  0.43409356  0.51754761  0.76857202    -0.77300
O470        O  0.47310094  0.49493082  0.73358731    -0.77500
C471        C  0.46029281  0.49105965  0.71045375     1.03200
O472        O  0.50912463  0.53154048  0.70682089    -0.84800
O473        O  0.49037812  0.58641611  0.69976007    -0.81800
C474        C  0.47533340  0.60814819  0.70220089     0.98700
O475        O  0.45139028  0.60671747  0.71349783    -0.81900
O476        O  0.46664806  0.59612608  0.76773118    -0.84500
C477        C  0.47704331  0.58355356  0.78873555     1.03200
O478        O  0.47534148  0.55709047  0.79053220    -0.77300
O479        O  0.51341813  0.53573044  0.75257915    -0.77400
C480        C  0.52400560  0.53083375  0.72888084     1.03100
Cr481      Cr  0.47191212  0.54905762  0.69854697     1.93700
Cr482      Cr  0.43807269  0.57993164  0.74272089     1.93200
Cr483      Cr  0.47304160  0.52825367  0.75951662     1.39100
O484        O  0.46126337  0.55237696  0.73371540    -1.22500
O485        O  0.50512126  0.27090922  0.54255597    -0.84800
O486        O  0.47876675  0.23333439  0.57716901    -0.81800
C487        C  0.46082462  0.22366403  0.59388117     0.98700
O488        O  0.43532955  0.23123285  0.59154834    -0.81900
O489        O  0.43262569  0.28775206  0.60579811    -0.84500
C490        C  0.43596652  0.31385234  0.60324784     1.03200
O491        O  0.43647625  0.32485103  0.57913693    -0.77300
O492        O  0.48960084  0.30835697  0.56450770    -0.77500
C493        C  0.50973427  0.29320248  0.55646601     1.03200
O494        O  0.46347414  0.25867727  0.49910222    -0.84800
O495        O  0.43921439  0.21884672  0.53308032    -0.81800
C496        C  0.41267479  0.22170869  0.53179855     0.98700
O497        O  0.40082390  0.24239369  0.54330779    -0.81900
O498        O  0.39329315  0.29679181  0.55935018    -0.84500
C499        C  0.39449357  0.30932315  0.53583514     1.03200
O500        O  0.41763888  0.31183481  0.52330087    -0.77300
O501        O  0.47229256  0.30271954  0.50771703    -0.77400
C502        C  0.46981752  0.28279795  0.49055777     1.03100
Cr503      Cr  0.46985729  0.24740870  0.53902366     1.93700
Cr504      Cr  0.41779802  0.26517590  0.57352867     1.93200
Cr505      Cr  0.45344219  0.30918447  0.54426828     1.39100
O506        O  0.44708883  0.27370367  0.55226399    -1.22500
O507        O  0.69684307  0.42653252  0.52984933    -0.84800
O508        O  0.67515564  0.41193665  0.58155692    -0.81800
C509        C  0.68742707  0.38885049  0.58545451     0.98700
O510        O  0.71360769  0.38798259  0.58935910    -0.81900
O511        O  0.76910840  0.40465813  0.58991699    -0.84500
C512        C  0.77841723  0.40414590  0.56495491     1.03200
O513        O  0.77019560  0.42200737  0.54725139    -0.77300
O514        O  0.73224408  0.45330838  0.51815903    -0.77500
C515        C  0.71246306  0.43683055  0.51111976     1.03200
O516        O  0.69566347  0.48380474  0.54570519    -0.84800
O517        O  0.68249305  0.46792065  0.59964871    -0.81800
C518        C  0.68315967  0.45571345  0.62319545     0.98700
O519        O  0.69860537  0.43416188  0.62684252    -0.81900
O520        O  0.75286497  0.45162944  0.62449573    -0.84500
C521        C  0.77375262  0.46436045  0.61488568     1.03200
O522        O  0.77818429  0.46530352  0.58857957    -0.77300
O523        O  0.73699065  0.49657956  0.56077756    -0.77400
C524        C  0.71373315  0.50270181  0.54933553     1.03100
Cr525      Cr  0.69027682  0.44715670  0.56501155     1.93700
Cr526      Cr  0.73307551  0.42117873  0.60531317     1.93200
Cr527      Cr  0.75247296  0.45812971  0.55543130     1.39100
O528        O  0.72555068  0.44219657  0.57540568    -1.22500
C529        C  0.57581169  0.33733945  0.56467728    -0.11300
C530        C  0.59530411  0.31717226  0.57372531     0.11300
C531        C  0.58683616  0.28912610  0.57749654    -0.03100
C532        C  0.55878673  0.28192679  0.57103985    -0.05900
C533        C  0.53899058  0.30221044  0.56240439    -0.16600
C534        C  0.54763832  0.33049954  0.55902689     0.02300
C535        C  0.62443396  0.32688754  0.57866339     0.12200
C536        C  0.60742156  0.26720439  0.58825395     0.62900
H537        H  0.55203844  0.26043095  0.57296551     0.12300
C538        C  0.52775142  0.35334728  0.54853996     0.55000
H539        H  0.58302380  0.35870309  0.56214179     0.08100
C540        C  0.64324723  0.33140042  0.55603733    -0.05700
C541        C  0.66611583  0.34951496  0.56016203    -0.06500
C542        C  0.67015141  0.36346077  0.58574495    -0.16100
C543        C  0.65296540  0.35703839  0.60905930    -0.01700
C544        C  0.63041184  0.33842304  0.60519070    -0.09200
C545        C  0.63933284  0.31929423  0.52672544     0.65100
H546        H  0.67949838  0.35467899  0.54248164     0.10500
C547        C  0.65698229  0.37167992  0.63713907     0.63500
H548        H  0.61560375  0.33499887  0.62210461     0.07900
F549        F  0.54182457  0.37807661  0.54293546    -0.19600
F550        F  0.50766195  0.35905792  0.56869769    -0.15800
F551        F  0.51468065  0.34486602  0.52388439    -0.19300
F552        F  0.61695784  0.27471453  0.61476131    -0.22700
F553        F  0.63014941  0.26526385  0.57029860    -0.24200
F554        F  0.59510316  0.24102574  0.59013580    -0.18100
F555        F  0.64907614  0.39946339  0.63468257    -0.20600
F556        F  0.68496143  0.37018094  0.64533314    -0.21800
F557        F  0.64092004  0.35954428  0.65806031    -0.19000
F558        F  0.66319549  0.30426064  0.51960271    -0.19100
F559        F  0.63575356  0.34093815  0.50765258    -0.22900
F560        F  0.61649127  0.30157024  0.52440956    -0.24500
C561        C  0.41976694  0.36562367  0.66112816    -0.11300
C562        C  0.44512115  0.38067265  0.66164679     0.11300
C563        C  0.46890271  0.37011614  0.64723484    -0.03100
C564        C  0.46560350  0.34623877  0.63023889    -0.05900
C565        C  0.43956072  0.33263880  0.62764650    -0.16600
C566        C  0.41652675  0.34165979  0.64408120     0.02300
C567        C  0.44567371  0.40870644  0.67519060     0.12200
C568        C  0.49735112  0.38455353  0.64917334     0.62900
H569        H  0.48300453  0.33883372  0.61758811     0.12300
C570        C  0.38839460  0.32684732  0.64237758     0.55000
H571        H  0.40207154  0.37378530  0.67287254     0.08100
C572        C  0.43850287  0.43315417  0.65993689    -0.05700
C573        C  0.44331004  0.45938203  0.67245423    -0.06500
C574        C  0.45395688  0.46204508  0.70010603    -0.16100
C575        C  0.45811227  0.43717912  0.71641299    -0.01700
C576        C  0.45443898  0.41091698  0.70327237    -0.09200
C577        C  0.42576906  0.43147347  0.63052050     0.65100
H578        H  0.43897751  0.47811493  0.66033175     0.10500
C579        C  0.46590491  0.43779534  0.74750922     0.63500
H580        H  0.45888123  0.39173323  0.71466571     0.07900
F581        F  0.36875759  0.33874852  0.66021050    -0.19600
F582        F  0.39184528  0.29905239  0.64988588    -0.15800
F583        F  0.37792221  0.32828062  0.61520372    -0.19300
F584        F  0.50627889  0.38516511  0.67692870    -0.22700
F585        F  0.49533715  0.41170108  0.63920857    -0.24200
F586        F  0.51766370  0.37073425  0.63360771    -0.18100
F587        F  0.46492496  0.41138706  0.75953845    -0.20600
F588        F  0.44708702  0.45460560  0.76191994    -0.21800
F589        F  0.49297493  0.44787270  0.75099267    -0.19000
F590        F  0.41990166  0.45774331  0.61955510    -0.19100
F591        F  0.40080898  0.41666478  0.63142831    -0.22900
F592        F  0.44411803  0.41808914  0.61245681    -0.24500
C593        C  0.64824071  0.47606085  0.69273990    -0.11300
C594        C  0.62222894  0.48579549  0.68263603     0.11300
C595        C  0.61634515  0.48556057  0.65338976    -0.03100
C596        C  0.63677770  0.47491664  0.63516332    -0.05900
C597        C  0.66303156  0.46524518  0.64498242    -0.16600
C598        C  0.66899969  0.46582176  0.67430736     0.02300
C599        C  0.60145966  0.49706221  0.70272430     0.12200
C600        C  0.58880396  0.49696511  0.64131703     0.62900
H601        H  0.63240765  0.47431821  0.61276729     0.12300
C602        C  0.69750611  0.45732636  0.68596255     0.55000
H603        H  0.65224023  0.47698272  0.71519285     0.08100
C604        C  0.58151102  0.47957121  0.71594606    -0.05700
C605        C  0.55766570  0.49207411  0.72807111    -0.06500
C606        C  0.55316314  0.52105335  0.72626563    -0.16100
C607        C  0.57437712  0.53855793  0.71539856    -0.01700
C608        C  0.59890936  0.52622210  0.70468359    -0.09200
C609        C  0.58450496  0.44790744  0.71547498     0.65100
H610        H  0.54104020  0.47910509  0.73650144     0.10500
C611        C  0.56990765  0.56980840  0.71295776     0.63500
H612        H  0.61480681  0.53910026  0.69482576     0.07900
F613        F  0.70219548  0.42913728  0.68117050    -0.19600
F614        F  0.69954073  0.46188001  0.71469550    -0.15800
F615        F  0.71808207  0.47305268  0.67297128    -0.19300
F616        F  0.58706430  0.52547587  0.64609066    -0.22700
F617        F  0.56614525  0.48388949  0.65379562    -0.24200
F618        F  0.58673082  0.49268835  0.61254700    -0.18100
F619        F  0.59394494  0.58340519  0.70394884    -0.20600
F620        F  0.56254763  0.58056989  0.73892693    -0.21800
F621        F  0.54856921  0.57507482  0.69372320    -0.19000
F622        F  0.56301092  0.43489939  0.73002623    -0.19100
F623        F  0.60978861  0.44022492  0.72787786    -0.22900
F624        F  0.58391195  0.43832497  0.68800651    -0.24500
C625        C  0.36747790  0.56183797  0.62360158    -0.11300
C626        C  0.34027789  0.56015731  0.63447596     0.11300
C627        C  0.33626082  0.55978492  0.66388651    -0.03100
C628        C  0.36015191  0.56138708  0.68162621    -0.05900
C629        C  0.38773704  0.56307689  0.67080833    -0.16600
C630        C  0.39141768  0.56321467  0.64092123     0.02300
C631        C  0.31726598  0.55782807  0.61335735     0.12200
C632        C  0.30695681  0.55817948  0.67630824     0.62900
H633        H  0.35733472  0.56112194  0.70419302     0.12300
C634        C  0.42006845  0.56450101  0.62659484     0.55000
H635        H  0.36969020  0.56172351  0.60091414     0.08100
C636        C  0.31242206  0.57988447  0.59399493    -0.05700
C637        C  0.30299565  0.57328840  0.56676049    -0.06500
C638        C  0.29657305  0.54565620  0.55896346    -0.16100
C639        C  0.29714167  0.52428297  0.57974612    -0.01700
C640        C  0.30807255  0.53073229  0.60661051    -0.09200
C641        C  0.31932065  0.61020731  0.60049918     0.65100
H642        H  0.30171363  0.58977042  0.55106883     0.10500
C643        C  0.28845912  0.49441238  0.57312341     0.63500
H644        H  0.31224312  0.51405014  0.62152475     0.07900
F645        F  0.43384465  0.58890903  0.63409681    -0.19600
F646        F  0.41780655  0.56438666  0.59750771    -0.15800
F647        F  0.43609959  0.54140062  0.63415004    -0.19300
F648        F  0.29420888  0.53339145  0.66839541    -0.22700
F649        F  0.29086125  0.58042992  0.66667251    -0.24200
F650        F  0.30759972  0.55920343  0.70544110    -0.18100
F651        F  0.30522660  0.48364681  0.55201049    -0.20600
F652        F  0.26057184  0.49399898  0.56455228    -0.21800
F653        F  0.29103777  0.47708257  0.59638324    -0.19000
F654        F  0.29687846  0.62706778  0.59255926    -0.19100
F655        F  0.34287801  0.61813806  0.58554466    -0.22900
F656        F  0.32434520  0.61462727  0.62886938    -0.24500
C657        C  0.29359157  0.39679543  0.48990053    -0.11300
C658        C  0.32277859  0.39223975  0.49053784     0.11300
C659        C  0.34132520  0.41388052  0.48249779    -0.03100
C660        C  0.33014422  0.44060503  0.47778774    -0.05900
C661        C  0.30120528  0.44618319  0.48036960    -0.16600
C662        C  0.28227642  0.42360403  0.48441144     0.02300
C663        C  0.33402366  0.36619029  0.50314840     0.12200
C664        C  0.37290748  0.40903712  0.47993842     0.62900
H665        H  0.34422062  0.45775006  0.47300205     0.12300
C666        C  0.25060931  0.42774030  0.48371249     0.55000
H667        H  0.27988595  0.37948535  0.49511582     0.08100
C668        C  0.33850393  0.36421899  0.53258341    -0.05700
C669        C  0.35619155  0.34291284  0.54286813    -0.06500
C670        C  0.36966464  0.32419817  0.52459559    -0.16100
C671        C  0.36234152  0.32411579  0.49558606    -0.01700
C672        C  0.34452956  0.34534940  0.48531579    -0.09200
C673        C  0.32610777  0.38559215  0.55278549     0.65100
H674        H  0.36162373  0.34233771  0.56501281     0.10500
C675        C  0.37290279  0.30265910  0.47455725     0.63500
H676        H  0.34016679  0.34667009  0.46291210     0.07900
F677        F  0.23636119  0.40287418  0.48811700    -0.19600
F678        F  0.24258622  0.43793729  0.45759449    -0.15800
F679        F  0.24263747  0.44646070  0.50442430    -0.19300
F680        F  0.37799985  0.38893812  0.45963629    -0.22700
F681        F  0.38400823  0.40010902  0.50539653    -0.24200
F682        F  0.38698467  0.43316007  0.47213749    -0.18100
F683        F  0.35011887  0.29091079  0.46067438    -0.20600
F684        F  0.38802804  0.28111425  0.48694257    -0.21800
F685        F  0.38976575  0.31580694  0.45499721    -0.19000
F686        F  0.33335759  0.37988402  0.58048541    -0.19100
F687        F  0.29705793  0.38529559  0.55068550    -0.22900
F688        F  0.33577802  0.41212418  0.54636968    -0.24500
C689        C  0.66001159  0.62521852  0.53821603    -0.11300
C690        C  0.67965885  0.61500911  0.51889225     0.11300
C691        C  0.68149383  0.62767987  0.49193958    -0.03100
C692        C  0.66206602  0.64878958  0.48464447    -0.05900
C693        C  0.64098453  0.65754572  0.50331686    -0.16600
C694        C  0.64104247  0.64675013  0.53126571     0.02300
C695        C  0.69208008  0.58711950  0.52514712     0.12200
C696        C  0.70222923  0.61858641  0.46952180     0.62900
H697        H  0.66234051  0.65721470  0.46344273     0.12300
C698        C  0.62012461  0.65604244  0.55349511     0.55000
H699        H  0.65796123  0.61456350  0.55823946     0.08100
C700        C  0.71199969  0.58231373  0.54692912    -0.05700
C701        C  0.71922008  0.55443286  0.55380262    -0.06500
C702        C  0.70732102  0.53157984  0.53934327    -0.16100
C703        C  0.68908290  0.53682220  0.51592308    -0.01700
C704        C  0.68137037  0.56451715  0.50982975    -0.09200
C705        C  0.72579282  0.60650461  0.56241555     0.65100
H706        H  0.73361910  0.55028939  0.57109231     0.10500
C707        C  0.67817934  0.51379580  0.49659110     0.63500
H708        H  0.66625370  0.56885120  0.49318923     0.07900
F709        F  0.62952936  0.64934530  0.58033554    -0.19600
F710        F  0.59465900  0.64278178  0.54909780    -0.15800
F711        F  0.61626628  0.68472267  0.55252253    -0.19300
F712        F  0.68763825  0.60634704  0.44744157    -0.22700
F713        F  0.72215807  0.59977239  0.47939970    -0.24200
F714        F  0.71635826  0.64181911  0.45953266    -0.18100
F715        F  0.66577598  0.52461785  0.47245086    -0.20600
F716        F  0.65816428  0.49785423  0.51018702    -0.21800
F717        F  0.70028535  0.49697572  0.48822693    -0.19000
F718        F  0.74693249  0.59736983  0.58043875    -0.19100
F719        F  0.70610528  0.62079758  0.57821524    -0.22900
F720        F  0.73757462  0.62470061  0.54315742    -0.24500
C721        C  0.42321048  0.69081893  0.47004629    -0.11300
C722        C  0.42031793  0.66280135  0.46189761     0.11300
C723        C  0.44423929  0.64720357  0.45363412    -0.03100
C724        C  0.47076669  0.65986534  0.45552360    -0.05900
C725        C  0.47419890  0.68748767  0.46531582    -0.16600
C726        C  0.44984478  0.70363651  0.47195414     0.02300
C727        C  0.39216992  0.64966819  0.46302997     0.12200
C728        C  0.44182456  0.61709066  0.44335374     0.62900
H729        H  0.48924308  0.64766711  0.45026111     0.12300
C730        C  0.45154454  0.73405613  0.48120515     0.55000
H731        H  0.40438631  0.70228448  0.47579667     0.08100
C732        C  0.38270484  0.63604496  0.48764316    -0.05700
C733        C  0.35913605  0.61844167  0.48554569    -0.06500
C734        C  0.34473282  0.61473452  0.45990266    -0.16100
C735        C  0.35244737  0.63078199  0.43611900    -0.01700
C736        C  0.37617887  0.64825869  0.43817722    -0.09200
C737        C  0.39794394  0.63953317  0.51567451     0.65100
H738        H  0.35262369  0.60622401  0.50358949     0.10500
C739        C  0.33689546  0.62803608  0.40829183     0.63500
H740        H  0.38360321  0.65951160  0.41987637     0.07900
F741        F  0.46275089  0.73563247  0.50810779    -0.19600
F742        F  0.42525863  0.74668838  0.48159585    -0.15800
F743        F  0.46818406  0.74902182  0.46275691    -0.19300
F744        F  0.42506440  0.61612219  0.41947911    -0.22700
F745        F  0.43001977  0.60049911  0.46397770    -0.24200
F746        F  0.46780914  0.60575196  0.43662838    -0.18100
F747        F  0.34795409  0.64546704  0.38787683    -0.20600
F748        F  0.30890948  0.63516250  0.41188559    -0.21800
F749        F  0.33872288  0.60075565  0.39868013    -0.19000
F750        F  0.38525043  0.62432462  0.53690102    -0.19100
F751        F  0.39765882  0.66746527  0.52336530    -0.22900
F752        F  0.42557230  0.63057881  0.51357919    -0.24500
C753        C  0.51136712  0.66042332  0.59954690    -0.11300
C754        C  0.51222868  0.68121999  0.62019515     0.11300
C755        C  0.52321810  0.70786637  0.61388810    -0.03100
C756        C  0.53363863  0.71261246  0.58661331    -0.05900
C757        C  0.53191535  0.69202765  0.56531664    -0.16600
C758        C  0.51974579  0.66543768  0.57185290     0.02300
C759        C  0.49993869  0.67356247  0.64759203     0.12200
C760        C  0.52269980  0.73132438  0.63541927     0.62900
H761        H  0.54245535  0.73287080  0.58157334     0.12300
C762        C  0.51404845  0.64248209  0.55016383     0.55000
H763        H  0.50281486  0.64021749  0.60532135     0.08100
C764        C  0.47134830  0.66534940  0.64893171    -0.05700
C765        C  0.46364414  0.64528650  0.66884388    -0.06500
C766        C  0.48332439  0.63428166  0.68800793    -0.16100
C767        C  0.51028608  0.64668652  0.69023344    -0.01700
C768        C  0.51854988  0.66556172  0.66919988    -0.09200
C769        C  0.44914293  0.67474308  0.62783012     0.65100
H770        H  0.44251331  0.63671544  0.66803345     0.10500
C771        C  0.53071381  0.64134433  0.71424683     0.63500
H772        H  0.54030930  0.67230378  0.66847905     0.07900
F773        F  0.49623474  0.65258000  0.52930425    -0.19600
F774        F  0.50106382  0.61932268  0.56186249    -0.15800
F775        F  0.53900755  0.63329540  0.53848865    -0.19300
F776        F  0.53922556  0.72427498  0.65840765    -0.22700
F777        F  0.49533750  0.73580030  0.64422356    -0.24200
F778        F  0.53274969  0.75619553  0.62441549    -0.18100
F779        F  0.55562315  0.63079303  0.70372067    -0.20600
F780        F  0.52028765  0.62300930  0.73412475    -0.21800
F781        F  0.53638707  0.66646733  0.72761380    -0.19000
F782        F  0.42513805  0.68299059  0.64200087    -0.19100
F783        F  0.44244777  0.65263559  0.61021728    -0.22900
F784        F  0.45795969  0.69712482  0.61166637    -0.24500
C785        C  0.66935130  0.41407879  0.37859842    -0.11300
C786        C  0.66952928  0.43640410  0.39776076     0.11300
C787        C  0.65429893  0.46120639  0.39164128    -0.03100
C788        C  0.63623499  0.46135434  0.36819864    -0.05900
C789        C  0.63343891  0.43774017  0.35088646    -0.16600
C790        C  0.65132931  0.41431455  0.35497170     0.02300
C791        C  0.68238883  0.43197448  0.42581983     0.12200
C792        C  0.65608551  0.48678857  0.41059026     0.62900
H793        H  0.62266065  0.47924840  0.36427210     0.12300
C794        C  0.65002902  0.38911189  0.33559305     0.55000
H795        H  0.68184793  0.39566576  0.38347476     0.08100
C796        C  0.66648209  0.42058586  0.44808284    -0.05700
C797        C  0.67800922  0.42103106  0.47529161    -0.06500
C798        C  0.70487204  0.43227359  0.48093955    -0.16100
C799        C  0.72195023  0.44078347  0.45790181    -0.01700
C800        C  0.71008202  0.44075800  0.43063639    -0.09200
C801        C  0.63713656  0.40863664  0.44321767     0.65100
H802        H  0.66532989  0.41360410  0.49258624     0.10500
C803        C  0.75240096  0.44986352  0.46156873     0.63500
H804        H  0.72195354  0.44862672  0.41293005     0.07900
F805        F  0.66922591  0.36861035  0.34342596    -0.19600
F806        F  0.65614133  0.39734446  0.30839760    -0.15800
F807        F  0.62338241  0.37751617  0.33618441    -0.19300
F808        F  0.68369114  0.49581588  0.41216355    -0.22700
F809        F  0.64685512  0.48023650  0.43732191    -0.24200
F810        F  0.63976502  0.50874380  0.40050506    -0.18100
F811        F  0.76608901  0.45165920  0.43597689    -0.20600
F812        F  0.76680214  0.43052218  0.47794086    -0.21800
F813        F  0.75361924  0.47594450  0.47415046    -0.19000
F814        F  0.62539498  0.39862579  0.46784818    -0.19100
F815        F  0.63855513  0.38663689  0.42436016    -0.22900
F816        F  0.61933578  0.42902689  0.43248562    -0.24500
C817        C  0.50729525  0.28987836  0.42106191    -0.11300
C818        C  0.49506788  0.31498516  0.41154885     0.11300
C819        C  0.47062765  0.32556052  0.42480172    -0.03100
C820        C  0.46120856  0.31231813  0.44933736    -0.05900
C821        C  0.47528029  0.28900363  0.46069811    -0.16600
C822        C  0.49790757  0.27671695  0.44583664     0.02300
C823        C  0.51046421  0.33217337  0.39074086     0.12200
C824        C  0.45555557  0.35162603  0.41400118     0.62900
H825        H  0.44395133  0.32132956  0.46109854     0.12300
C826        C  0.51332880  0.25123552  0.45724822     0.55000
H827        H  0.52561862  0.28194126  0.41015082     0.08100
C828        C  0.53261553  0.35015248  0.39944427    -0.05700
C829        C  0.54323554  0.36957418  0.38006634    -0.06500
C830        C  0.53251410  0.37130592  0.35262953    -0.16100
C831        C  0.51162653  0.35233689  0.34338057    -0.01700
C832        C  0.50096384  0.33274877  0.36271221    -0.09200
C833        C  0.54453623  0.34927631  0.42923442     0.65100
H834        H  0.55944921  0.38424555  0.38642068     0.10500
C835        C  0.50051533  0.35329172  0.31340824     0.63500
H836        H  0.48434154  0.31851395  0.35646653     0.07900
F837        F  0.52500324  0.25735312  0.48327739    -0.19600
F838        F  0.53480307  0.24272781  0.43958871    -0.15800
F839        F  0.49466368  0.22923774  0.45999159    -0.19300
F840        F  0.44616434  0.34714356  0.38677144    -0.22700
F841        F  0.47367848  0.37424817  0.41431299    -0.24200
F842        F  0.43241677  0.35840104  0.43026830    -0.18100
F843        F  0.52244821  0.34873130  0.29493613    -0.20600
F844        F  0.48863603  0.37924614  0.30801523    -0.21800
F845        F  0.48022212  0.33305817  0.30858384    -0.19000
F846        F  0.56496993  0.36950676  0.43349050    -0.19100
F847        F  0.55673494  0.32340405  0.43421521    -0.22900
F848        F  0.52335965  0.35379530  0.44857614    -0.24500
C849        C  0.56809376  0.58881444  0.31708167    -0.11300
C850        C  0.56666606  0.59254009  0.34633855     0.11300
C851        C  0.55926760  0.56973141  0.36379492    -0.03100
C852        C  0.55607403  0.54321205  0.35153230    -0.05900
C853        C  0.55851274  0.53897255  0.32237086    -0.16600
C854        C  0.56348754  0.56234064  0.30458903     0.02300
C855        C  0.57287176  0.62040342  0.35868284     0.12200
C856        C  0.55427925  0.57346470  0.39520967     0.62900
H857        H  0.55120477  0.52541362  0.36476726     0.12300
C858        C  0.56423763  0.55943591  0.27281498     0.55000
H859        H  0.57287410  0.60686290  0.30416896     0.08100
C860        C  0.59992729  0.62692779  0.36944636    -0.05700
C861        C  0.60260597  0.64968953  0.38807294    -0.06500
C862        C  0.57934781  0.66647271  0.39494322    -0.16100
C863        C  0.55347083  0.66259643  0.38046194    -0.01700
C864        C  0.55049966  0.63912130  0.36287057    -0.09200
C865        C  0.62546818  0.60927297  0.36202914     0.65100
H866        H  0.62236935  0.65326148  0.39901402     0.10500
C867        C  0.52805994  0.68159849  0.38392393     0.63500
H868        H  0.53011064  0.63450160  0.35358226     0.07900
F869        F  0.57139043  0.58436611  0.25981265    -0.19600
F870        F  0.53795588  0.55160997  0.26294461    -0.15800
F871        F  0.58385124  0.53940361  0.26528161    -0.19300
F872        F  0.53270254  0.59251025  0.39935458    -0.22700
F873        F  0.57838394  0.58316415  0.40836613    -0.24200
F874        F  0.54672598  0.54857617  0.40805571    -0.18100
F875        F  0.51860308  0.68999739  0.35762269    -0.20600
F876        F  0.53393695  0.70547057  0.39930348    -0.21800
F877        F  0.50677892  0.66704525  0.39715225    -0.19000
F878        F  0.64996009  0.62007760  0.37362671    -0.19100
F879        F  0.62852005  0.60865871  0.33310300    -0.22900
F880        F  0.62224895  0.58219388  0.37177118    -0.24500
C881        C  0.42106865  0.49763999  0.31661307    -0.11300
C882        C  0.41287012  0.48223321  0.34029762     0.11300
C883        C  0.42778218  0.45771681  0.34811423    -0.03100
C884        C  0.45257407  0.45117980  0.33364359    -0.05900
C885        C  0.46261347  0.46852520  0.31214196    -0.16600
C886        C  0.44628090  0.49145781  0.30256716     0.02300
C887        C  0.39140329  0.49453439  0.35892541     0.12200
C888        C  0.41827831  0.43941446  0.37243993     0.62900
H889        H  0.46547303  0.43361192  0.34037964     0.12300
C890        C  0.45666341  0.51058488  0.27937240     0.55000
H891        H  0.40890177  0.51603552  0.31088807     0.08100
C892        C  0.39912686  0.51374332  0.38035834    -0.05700
C893        C  0.37833441  0.52296141  0.39904487    -0.06500
C894        C  0.35022215  0.51484037  0.39578293    -0.16100
C895        C  0.34213641  0.49748158  0.37306511    -0.01700
C896        C  0.36313595  0.48700445  0.35514700    -0.09200
C897        C  0.42904612  0.52480477  0.38313797     0.65100
H898        H  0.38377361  0.53684059  0.41628176     0.10500
C899        C  0.31145720  0.49089172  0.36756873     0.63500
H900        H  0.35771292  0.47300715  0.33801793     0.07900
F901        F  0.48159100  0.52313375  0.28766339    -0.19600
F902        F  0.43737397  0.53152482  0.27311092    -0.15800
F903        F  0.46121197  0.49517588  0.25517425    -0.19300
F904        F  0.39144119  0.42955981  0.36702578    -0.22700
F905        F  0.41803714  0.45465176  0.39718343    -0.24200
F906        F  0.43590564  0.41654982  0.37635267    -0.18100
F907        F  0.29726537  0.51566622  0.36228561    -0.20600
F908        F  0.29990502  0.47789857  0.39081042    -0.21800
F909        F  0.30792120  0.47350104  0.34450030    -0.19000
F910        F  0.43187811  0.54303469  0.40564041    -0.19100
F911        F  0.43617544  0.53917312  0.35894726    -0.22900
F912        F  0.44782162  0.50296248  0.38712782    -0.24500
C913        C  0.70150147  0.48039352  0.16313634    -0.11300
C914        C  0.67654688  0.49585333  0.16593549     0.11300
C915        C  0.67248736  0.52078078  0.15030227    -0.03100
C916        C  0.69314406  0.52848671  0.13077157    -0.05900
C917        C  0.71795610  0.51280495  0.12768777    -0.16600
C918        C  0.72253347  0.48860392  0.14425042     0.02300
C919        C  0.65539346  0.48557507  0.18603475     0.12200
C920        C  0.64705524  0.53957817  0.15498242     0.62900
H921        H  0.69044188  0.54724776  0.11817507     0.12300
C922        C  0.74915258  0.47130827  0.14145457     0.55000
H923        H  0.70425457  0.46174393  0.17587526     0.08100
C924        C  0.63506255  0.46532974  0.17830740    -0.05700
C925        C  0.61571073  0.45647928  0.19870801    -0.06500
C926        C  0.61674687  0.46678579  0.22635680    -0.16100
C927        C  0.63834414  0.48566439  0.23445994    -0.01700
C928        C  0.65704207  0.49511410  0.21384400    -0.09200
C929        C  0.63402074  0.45308234  0.14877377     0.65100
H930        H  0.59932827  0.44168513  0.19314937     0.10500
C931        C  0.64361522  0.49569309  0.26439423     0.63500
H932        H  0.67350373  0.50978784  0.21960910     0.07900
F933        F  0.74879491  0.44781585  0.15854946    -0.19600
F934        F  0.77217513  0.48733725  0.14906557    -0.15800
F935        F  0.75194018  0.46251052  0.11387324    -0.19300
F936        F  0.64764160  0.54977165  0.18221992    -0.22700
F937        F  0.62241103  0.52477581  0.15088985    -0.24200
F938        F  0.64677151  0.56221672  0.13674696    -0.18100
F939        F  0.67082698  0.48862172  0.27229796    -0.20600
F940        F  0.62559620  0.48415511  0.28388763    -0.21800
F941        F  0.64085444  0.52451140  0.26539170    -0.19000
F942        F  0.61253834  0.43374669  0.14576514    -0.19100
F943        F  0.65917210  0.43968881  0.14295522    -0.22900
F944        F  0.62968064  0.47409870  0.12919963    -0.24500
C945        C  0.82040367  0.48060074  0.67827973    -0.11300
C946        C  0.83149353  0.50648522  0.67035677     0.11300
C947        C  0.82394485  0.51853650  0.64418373    -0.03100
C948        C  0.80485281  0.50412250  0.62673539    -0.05900
C949        C  0.79335862  0.47825290  0.63474634    -0.16600
C950        C  0.80121012  0.46616273  0.66109656     0.02300
C951        C  0.85298761  0.51897381  0.68906471     0.12200
C952        C  0.83637984  0.54620169  0.63461994     0.62900
H953        H  0.79873637  0.51297687  0.60659923     0.12300
C954        C  0.79020922  0.43797448  0.67116650     0.55000
H955        H  0.82712977  0.47175304  0.69823553     0.08100
C956        C  0.84581579  0.53420045  0.71355263    -0.05700
C957        C  0.86770515  0.54403428  0.73092838    -0.06500
C958        C  0.89600964  0.53787683  0.72523537    -0.16100
C959        C  0.90308206  0.52234505  0.70086012    -0.01700
C960        C  0.88125439  0.51315320  0.68311697    -0.09200
C961        C  0.81529945  0.53946197  0.72158039     0.65100
H962        H  0.86288786  0.55600411  0.74958489     0.10500
C963        C  0.93345202  0.51603273  0.69320239     0.63500
H964        H  0.88599600  0.50084962  0.66456900     0.07900
F965        F  0.76212522  0.44021511  0.67798564    -0.19600
F966        F  0.80447027  0.42851461  0.69486962    -0.15800
F967        F  0.79332819  0.41799901  0.65045900    -0.19300
F968        F  0.86514670  0.54338537  0.63130843    -0.22700
F969        F  0.83117304  0.56677075  0.65439440    -0.24200
F970        F  0.82497143  0.55496625  0.60919681    -0.18100
F971        F  0.94519248  0.49791085  0.71274459    -0.20600
F972        F  0.94877358  0.54062677  0.69266807    -0.21800
F973        F  0.93551555  0.50360260  0.66695599    -0.19000
F974        F  0.81316911  0.55515489  0.74598752    -0.19100
F975        F  0.80179684  0.51425561  0.72606561    -0.22900
F976        F  0.80151984  0.55379753  0.70028117    -0.24500
C977        C  0.82887417  0.57594457  0.86620558    -0.11300
C978        C  0.83501908  0.56461437  0.89277526     0.11300
C979        C  0.86262291  0.55521797  0.89911801    -0.03100
C980        C  0.88349759  0.55850528  0.87882489    -0.05900
C981        C  0.87801477  0.57064101  0.85235572    -0.16600
C982        C  0.84998166  0.57905455  0.84559913     0.02300
C983        C  0.81291961  0.56331271  0.91452446     0.12200
C984        C  0.87025353  0.54194306  0.92737643     0.62900
H985        H  0.90464652  0.55141502  0.88368757     0.12300
C986        C  0.84223324  0.59140565  0.81719380     0.55000
H987        H  0.80743829  0.58256656  0.86192086     0.08100
C988        C  0.80976633  0.58528745  0.93415887    -0.05700
C989        C  0.79896169  0.57888664  0.96079392    -0.06500
C990        C  0.79099505  0.55147362  0.96778458    -0.16100
C991        C  0.78951740  0.53076630  0.94636193    -0.01700
C992        C  0.80041366  0.53730076  0.91969212    -0.09200
C993        C  0.81930820  0.61483547  0.92744759     0.65100
H994        H  0.79856855  0.59480346  0.97702991     0.10500
C995        C  0.77888327  0.50134306  0.95204427     0.63500
H996        H  0.80230533  0.52117303  0.90377091     0.07900
F997        F  0.85839379  0.61488004  0.81200369    -0.19600
F998        F  0.81415853  0.59927447  0.81578429    -0.15800
F999        F  0.84681868  0.57163870  0.79651336    -0.19300
F1000       F  0.85533893  0.51739597  0.93093369    -0.22700
F1001       F  0.86404799  0.56016339  0.94909603    -0.24200
F1002       F  0.89862815  0.53539290  0.92932074    -0.18100
F1003       F  0.75126950  0.50253707  0.96105664    -0.20600
F1004       F  0.79542499  0.48861578  0.97243517    -0.21800
F1005       F  0.77962275  0.48475512  0.92814717    -0.19000
F1006       F  0.81377085  0.63316425  0.94933172    -0.19100
F1007       F  0.80510891  0.62433940  0.90377911    -0.22900
F1008       F  0.84795048  0.61523135  0.92239022    -0.24500
C1009       C  0.91659365  0.70016466  0.05982434    -0.11300
C1010       C  0.91225145  0.67545647  0.07504054     0.11300
C1011       C  0.93446040  0.66387022  0.09127021    -0.03100
C1012       C  0.96122843  0.67596662  0.08943052    -0.05900
C1013       C  0.96670847  0.69867266  0.07135483    -0.16600
C1014       C  0.94349900  0.71246862  0.05803842     0.02300
C1015       C  0.88660632  0.65884588  0.06932651     0.12200
C1016       C  0.93039671  0.63762786  0.10899738     0.62900
H1017       H  0.97856036  0.66635558  0.10080884     0.12300
C1018       C  0.94677425  0.73926957  0.04119349     0.55000
H1019       H  0.89907738  0.70867738  0.04782849     0.08100
C1020       C  0.86200311  0.66070972  0.08571358    -0.05700
C1021       C  0.84197089  0.63902583  0.08357199    -0.06500
C1022       C  0.84581946  0.61634366  0.06498353    -0.16100
C1023       C  0.86876603  0.61701930  0.04575792    -0.01700
C1024       C  0.88878545  0.63833866  0.04850161    -0.09200
C1025       C  0.85700485  0.68564571  0.10483576     0.65100
H1026       H  0.82379480  0.63909548  0.09722064     0.10500
C1027       C  0.87268422  0.59557056  0.02240961     0.63500
H1028       H  0.90749789  0.63813697  0.03554671     0.07900
F1029       F  0.92096263  0.75052924  0.03339467    -0.19600
F1030       F  0.96172265  0.73389238  0.01691529    -0.15800
F1031       F  0.96067655  0.75913530  0.05726476    -0.19300
F1032       F  0.92465938  0.61495600  0.09182207    -0.22700
F1033       F  0.90830563  0.64138756  0.12739666    -0.24200
F1034       F  0.95413476  0.63130417  0.12483487    -0.18100
F1035       F  0.89287259  0.60391582  0.00325245    -0.20600
F1036       F  0.84772344  0.59234165  0.00775117    -0.21800
F1037       F  0.88126233  0.57013884  0.03350408    -0.19000
F1038       F  0.83205172  0.68316004  0.11951902    -0.19100
F1039       F  0.85556723  0.70972456  0.08868849    -0.22900
F1040       F  0.87873531  0.68833941  0.12412755    -0.24500
C1041       C  0.01483072  0.67295428  0.86443250    -0.11300
C1042       C  0.00024940  0.67724205  0.88968364     0.11300
C1043       C  0.97223055  0.66748387  0.89237448    -0.03100
C1044       C  0.96111413  0.65032065  0.87108673    -0.05900
C1045       C  0.97705954  0.64323743  0.84745547    -0.16600
C1046       C  0.00334059  0.65622271  0.84284647     0.02300
C1047       C  0.01578528  0.68794969  0.91456890     0.12200
C1048       C  0.95474678  0.67404663  0.91825060     0.62900
H1049       H  0.94070770  0.64059084  0.87372579     0.12300
C1050       C  0.01850236  0.65293911  0.81498111     0.55000
H1051       H  0.03578538  0.68159411  0.86239408     0.08100
C1052       C  0.03068902  0.66922099  0.93233765    -0.05700
C1053       C  0.03921704  0.67865183  0.95896370    -0.06500
C1054       C  0.03388497  0.70615261  0.96812349    -0.16100
C1055       C  0.02167860  0.72571107  0.94913151    -0.01700
C1056       C  0.01261975  0.71610389  0.92246941    -0.09200
C1057       C  0.03655836  0.63906494  0.92365422     0.65100
H1058       H  0.04918217  0.66410732  0.97345826     0.10500
C1059       C  0.01703309  0.75605177  0.95733537     0.63500
H1060       H  0.00168125  0.73009298  0.90813034     0.07900
F1061       F  0.02458204  0.62513260  0.80971033    -0.19600
F1062       F  0.04352296  0.66774348  0.81462566    -0.15800
F1063       F  0.00140579  0.66301597  0.79354885    -0.19300
F1064       F  0.95158107  0.70273291  0.92078368    -0.22700
F1065       F  0.96785931  0.66371355  0.94218239    -0.24200
F1066       F  0.92814358  0.66233351  0.91656722    -0.18100
F1067       F  0.04271052  0.76853868  0.96292672    -0.20600
F1068       F  0.00033790  0.75753379  0.98101331    -0.21800
F1069       F  0.00385248  0.77110466  0.93607218    -0.19000
F1070       F  0.05122651  0.62445744  0.94426867    -0.19100
F1071       F  0.05260291  0.63876501  0.89947133    -0.22900
F1072       F  0.01155919  0.62510430  0.91858815    -0.24500
C1073       C  0.11438696  0.46513172  0.85009481    -0.11300
C1074       C  0.12238856  0.49180031  0.84061444     0.11300
C1075       C  0.15004616  0.50153150  0.84622121    -0.03100
C1076       C  0.16804677  0.48494187  0.86296084    -0.05900
C1077       C  0.15920375  0.45929548  0.87423639    -0.16600
C1078       C  0.13245714  0.44851909  0.86674065     0.02300
C1079       C  0.09962402  0.51006869  0.82934802     0.12200
C1080       C  0.16144819  0.52933835  0.83592054     0.62900
H1081       H  0.18868815  0.49291827  0.86865415     0.12300
C1082       C  0.12306617  0.41966334  0.87627526     0.55000
H1083       H  0.09316091  0.45804999  0.84562304     0.08100
C1084       C  0.08846462  0.50688802  0.80188974    -0.05700
C1085       C  0.06310776  0.52072042  0.79491388    -0.06500
C1086       C  0.04884041  0.53736626  0.81468444    -0.16100
C1087       C  0.06195533  0.54311472  0.84105869    -0.01700
C1088       C  0.08710629  0.52904159  0.84798460    -0.09200
C1089       C  0.10304580  0.48844036  0.78045769     0.65100
H1090       H  0.05327560  0.51700387  0.77462132     0.10500
C1091       C  0.04976629  0.56399054  0.86189960     0.63500
H1092       H  0.09650347  0.53166371  0.86866593     0.07900
F1093       F  0.14348345  0.40009678  0.86951825    -0.19600
F1094       F  0.09813682  0.41172237  0.86329779    -0.15800
F1095       F  0.11885098  0.41941242  0.90503326    -0.19300
F1096       F  0.16767217  0.54615159  0.85883243    -0.22700
F1097       F  0.14289265  0.54361296  0.81853158    -0.24200
F1098       F  0.18591620  0.52459104  0.82096876    -0.18100
F1099       F  0.02610896  0.55308626  0.87460386    -0.20600
F1100       F  0.04272743  0.58851969  0.84811101    -0.21800
F1101       F  0.06896648  0.57064995  0.88291204    -0.19000
F1102       F  0.09070443  0.49075558  0.75407135    -0.19100
F1103       F  0.10170675  0.46074036  0.78880131    -0.22900
F1104       F  0.13098312  0.49623424  0.77823247    -0.24500
C1105       C  0.30706281  0.47400738  0.83843035    -0.11300
C1106       C  0.32770411  0.49242050  0.84827830     0.11300
C1107       C  0.32743728  0.50186702  0.87645068    -0.03100
C1108       C  0.30665384  0.49151882  0.89438297    -0.05900
C1109       C  0.28644777  0.47217155  0.88497617    -0.16600
C1110       C  0.28641523  0.46328316  0.85640463     0.02300
C1111       C  0.34938003  0.50173963  0.82847756     0.12200
C1112       C  0.34908090  0.52262819  0.88751384     0.62900
H1113       H  0.30636058  0.49814890  0.91618427     0.12300
C1114       C  0.26463154  0.44316541  0.84453341     0.55000
H1115       H  0.30763188  0.46779565  0.81650743     0.08100
C1116       C  0.37320322  0.48513330  0.82243435    -0.05700
C1117       C  0.39430701  0.49663884  0.80558314    -0.06500
C1118       C  0.39210244  0.52395267  0.79456933    -0.16100
C1119       C  0.36721473  0.53995018  0.79957889    -0.01700
C1120       C  0.34614722  0.52818422  0.81634007    -0.09200
C1121       C  0.37631214  0.45551908  0.83385871     0.65100
H1122       H  0.41302052  0.48438853  0.80134601     0.10500
C1123       C  0.36242041  0.56918493  0.78767249     0.63500
H1124       H  0.32715942  0.53990039  0.82098542     0.07900
F1125       F  0.26684822  0.44032566  0.81561584    -0.19600
F1126       F  0.23788619  0.45302665  0.85022878    -0.15800
F1127       F  0.26824782  0.41689048  0.85628914    -0.19300
F1128       F  0.34619276  0.54789602  0.87356174    -0.22700
F1129       F  0.37597643  0.51231878  0.88334190    -0.24200
F1130       F  0.34589328  0.52767748  0.91602056    -0.18100
F1131       F  0.33545227  0.57895097  0.79286355    -0.20600
F1132       F  0.36598037  0.56889675  0.75883749    -0.21800
F1133       F  0.38109596  0.58781551  0.79990350    -0.19000
F1134       F  0.40175965  0.44349520  0.82637216    -0.19100
F1135       F  0.35498877  0.43886358  0.82322171    -0.22900
F1136       F  0.37483653  0.45574783  0.86291934    -0.24500
C1137       C  0.20120835  0.58489777  0.98232786    -0.11300
C1138       C  0.17203972  0.58930634  0.98191558     0.11300
C1139       C  0.15434325  0.57007950  0.96775067    -0.03100
C1140       C  0.16614653  0.54502672  0.95769601    -0.05900
C1141       C  0.19499852  0.53882015  0.96111401    -0.16600
C1142       C  0.21321098  0.56004259  0.97173351     0.02300
C1143       C  0.16013329  0.61288952  0.99839233     0.12200
C1144       C  0.12298567  0.57567851  0.96405735     0.62900
H1145       H  0.15241873  0.52942100  0.94847306     0.12300
C1146       C  0.24502732  0.55671430  0.97242624     0.55000
H1147       H  0.21440652  0.60050060  0.99236404     0.08100
C1148       C  0.15387820  0.60985991  0.02737731    -0.05700
C1149       C  0.13869002  0.63126326  0.04091899    -0.06500
C1150       C  0.12932314  0.65501372  0.02620496    -0.16100
C1151       C  0.13730209  0.65890417  0.99774649    -0.01700
C1152       C  0.15295257  0.63772802  0.98434254    -0.09200
C1153       C  0.16229284  0.58362878  0.04356818     0.65100
H1154       H  0.13245831  0.62880314  0.06268039     0.10500
C1155       C  0.12929592  0.68525973  0.98164761     0.63500
H1156       H  0.15852008  0.63974520  0.96235882     0.07900
F1157       F  0.25291294  0.53904975  0.99418236    -0.19600
F1158       F  0.25832220  0.58217845  0.97656865    -0.15800
F1159       F  0.25433115  0.54592337  0.94707787    -0.19300
F1160       F  0.11905022  0.59985849  0.94847679    -0.22700
F1161       F  0.11036077  0.57889583  0.99000840    -0.24200
F1162       F  0.10953121  0.55402203  0.95006530    -0.18100
F1163       F  0.14163925  0.68604365  0.95532789    -0.20600
F1164       F  0.13806895  0.70857960  0.99654441    -0.21800
F1165       F  0.10048710  0.68654239  0.97785580    -0.19000
F1166       F  0.15366463  0.58471590  0.07133528    -0.19100
F1167       F  0.19126359  0.58067758  0.04342159    -0.22900
F1168       F  0.15023563  0.56027189  0.03126375    -0.24500
C1169       C  0.94188054  0.36753212  0.85417073    -0.11300
C1170       C  0.94635040  0.39395942  0.86639452     0.11300
C1171       C  0.95016551  0.39630538  0.89586777    -0.03100
C1172       C  0.94979862  0.37186120  0.91217104    -0.05900
C1173       C  0.94499035  0.34540084  0.90019921    -0.16600
C1174       C  0.94112239  0.34297178  0.87072270     0.02300
C1175       C  0.94732184  0.41918143  0.84821598     0.12200
C1176       C  0.95406816  0.42458521  0.91016399     0.62900
H1177       H  0.95236252  0.37333812  0.93480285     0.12300
C1178       C  0.93717396  0.31463742  0.85685861     0.55000
H1179       H  0.93896063  0.36635614  0.83157182     0.08100
C1180       C  0.97278305  0.42837607  0.83606509    -0.05700
C1181       C  0.97376969  0.45543752  0.82445271    -0.06500
C1182       C  0.95020478  0.47331449  0.82478798    -0.16100
C1183       C  0.92400866  0.46299426  0.83449774    -0.01700
C1184       C  0.92305244  0.43586336  0.84604831    -0.09200
C1185       C  0.99890034  0.40991198  0.83610075     0.65100
H1186       H  0.99343698  0.46336066  0.81625304     0.10500
C1187       C  0.89724101  0.48040868  0.83284158     0.63500
H1188       H  0.90367883  0.42805002  0.85502070     0.07900
F1189       F  0.93722611  0.31664612  0.82778006    -0.19600
F1190       F  0.91174839  0.30322408  0.86491379    -0.15800
F1191       F  0.95884923  0.29683796  0.86485582    -0.19300
F1192       F  0.93003058  0.44064062  0.90660447    -0.22700
F1193       F  0.97671158  0.43857127  0.89868750    -0.24200
F1194       F  0.95903302  0.42183651  0.93879039    -0.18100
F1195       F  0.87358584  0.46451707  0.83848829    -0.20600
F1196       F  0.89413565  0.49155287  0.80609874    -0.21800
F1197       F  0.89841711  0.50186408  0.85229697    -0.19000
F1198       F  0.02148601  0.42295854  0.82334303    -0.19100
F1199       F  0.99330645  0.38545600  0.82154839    -0.22900
F1200       F  0.00671236  0.40330384  0.86340075    -0.24500
C1201       C  0.78897378  0.40251219  0.01745851    -0.11300
C1202       C  0.81806403  0.39731906  0.01629742     0.11300
C1203       C  0.83729429  0.41796479  0.02562688    -0.03100
C1204       C  0.82657150  0.44315627  0.03616405    -0.05900
C1205       C  0.79758591  0.44932888  0.03581708    -0.16600
C1206       C  0.77827255  0.42851913  0.02682755     0.02300
C1207       C  0.82844368  0.37100035  0.00351067     0.12200
C1208       C  0.86906777  0.41429730  0.02276872     0.62900
H1209       H  0.84109991  0.45915900  0.04326387     0.12300
C1210       C  0.74683966  0.43407630  0.02591365     0.55000
H1211       H  0.77481493  0.38635674  0.00999224     0.08100
C1212       C  0.83613073  0.34760947  0.02016276    -0.05700
C1213       C  0.85370739  0.32701786  0.00830914    -0.06500
C1214       C  0.86291892  0.32925500  0.98041853    -0.16100
C1215       C  0.85187539  0.35052817  0.96276759    -0.01700
C1216       C  0.83462382  0.37124527  0.97470192    -0.09200
C1217       C  0.82636975  0.34504592  0.05040155     0.65100
H1218       H  0.86195405  0.31015987  0.02125637     0.10500
C1219       C  0.85943286  0.35196481  0.93183197     0.63500
H1220       H  0.82780075  0.38902266  0.96218591     0.07900
F1221       F  0.73206809  0.41142976  0.01525838    -0.19600
F1222       F  0.74120153  0.45698010  0.00891694    -0.15800
F1223       F  0.73724149  0.43931492  0.05283131    -0.19300
F1224       F  0.87600528  0.41220741  0.99462190    -0.22700
F1225       F  0.87804424  0.39040405  0.03660103    -0.24200
F1226       F  0.88375530  0.43674239  0.03399333    -0.18100
F1227       F  0.84345345  0.37181831  0.91763652    -0.20600
F1228       F  0.85467347  0.32622111  0.91932656    -0.21800
F1229       F  0.88747781  0.35891732  0.92902888    -0.19000
F1230       F  0.83553637  0.32030478  0.06265114    -0.19100
F1231       F  0.79725836  0.34544438  0.05097680    -0.22900
F1232       F  0.83646548  0.36708353  0.06637243    -0.24500
C1233       C  0.13886030  0.32524612  0.95316779    -0.11300
C1234       C  0.11701183  0.33120504  0.97184800     0.11300
C1235       C  0.11897385  0.35453793  0.98999636    -0.03100
C1236       C  0.14071538  0.37380298  0.98560159    -0.05900
C1237       C  0.16050736  0.37013887  0.96391934    -0.16600
C1238       C  0.16105451  0.34422944  0.94907306     0.02300
C1239       C  0.09036815  0.31560723  0.96899324     0.12200
C1240       C  0.09753872  0.35950942  0.01313072     0.62900
H1241       H  0.14123788  0.39274233  0.99811027     0.12300
C1242       C  0.18425361  0.33654063  0.92860550     0.55000
H1243       H  0.13727069  0.30657612  0.94029375     0.08100
C1244       C  0.06915338  0.32506024  0.95012638    -0.05700
C1245       C  0.04230623  0.31317685  0.95193494    -0.06500
C1246       C  0.03657670  0.29181934  0.97121503    -0.16100
C1247       C  0.05846419  0.28034655  0.98796843    -0.01700
C1248       C  0.08529801  0.29272805  0.98675058    -0.09200
C1249       C  0.07460607  0.34824393  0.92887278     0.65100
H1250       H  0.02519831  0.32119329  0.93901118     0.10500
C1251       C  0.05306738  0.25598455  0.00765898     0.63500
H1252       H  0.10214915  0.28548729  0.00042645     0.07900
F1253       F  0.18371142  0.30829921  0.92195392    -0.19600
F1254       F  0.21029342  0.34221673  0.94051649    -0.15800
F1255       F  0.18099887  0.35152153  0.90387613    -0.19300
F1256       F  0.09755317  0.33686506  0.03129083    -0.22700
F1257       F  0.07088170  0.36273536  0.00167608    -0.24200
F1258       F  0.10364022  0.38327017  0.02870936    -0.18100
F1259       F  0.04373103  0.23318980  0.99228033    -0.20600
F1260       F  0.03280370  0.26336293  0.02710131    -0.21800
F1261       F  0.07719529  0.24805067  0.02215021    -0.19000
F1262       F  0.05131179  0.35332511  0.91191863    -0.19100
F1263       F  0.09667439  0.34068597  0.91158485    -0.22900
F1264       F  0.08132125  0.37285798  0.94265532    -0.24500
C1265       C  0.14696490  0.48719102  0.32368549    -0.11300
C1266       C  0.16331320  0.46704454  0.33771965     0.11300
C1267       C  0.15909757  0.43826662  0.33186665    -0.03100
C1268       C  0.13919999  0.43073111  0.31101703    -0.05900
C1269       C  0.12276287  0.45096445  0.29695748    -0.16600
C1270       C  0.12676156  0.47972433  0.30330394     0.02300
C1271       C  0.18375832  0.47728782  0.35920348     0.12200
C1272       C  0.17480635  0.41570914  0.34820229     0.62900
H1273       H  0.13567234  0.40885938  0.30611424     0.12300
C1274       C  0.11040533  0.50255803  0.28814859     0.55000
H1275       H  0.15025978  0.50902182  0.32895730     0.08100
C1276       C  0.21010496  0.48863599  0.35165314    -0.05700
C1277       C  0.22664401  0.50152172  0.37261321    -0.06500
C1278       C  0.21795156  0.50352664  0.40087843    -0.16100
C1279       C  0.19144619  0.49157969  0.40838896    -0.01700
C1280       C  0.17490251  0.47883993  0.38721010    -0.09200
C1281       C  0.22058289  0.48745038  0.32146918     0.65100
H1282       H  0.24646114  0.51068463  0.36671900     0.10500
C1283       C  0.17989871  0.49252332  0.43819416     0.63500
H1284       H  0.15433072  0.47049628  0.39214098     0.07900
F1285       F  0.11909783  0.52908585  0.29609513    -0.19600
F1286       F  0.08213298  0.50027724  0.29435389    -0.15800
F1287       F  0.11432939  0.50002806  0.25944598    -0.19300
F1288       F  0.16734979  0.41695787  0.37625652    -0.22700
F1289       F  0.20353543  0.41957160  0.34604172    -0.24200
F1290       F  0.16855689  0.38914859  0.33830744    -0.18100
F1291       F  0.15388407  0.47965911  0.44017541    -0.20600
F1292       F  0.17657040  0.52006204  0.44665801    -0.21800
F1293       F  0.19804951  0.47870748  0.45640404    -0.19000
F1294       F  0.24715475  0.49899475  0.31883050    -0.19100
F1295       F  0.20247786  0.50210539  0.30392967    -0.22900
F1296       F  0.22200239  0.45994627  0.31253493    -0.24500
C1297       C  0.17756715  0.45354797  0.14744752    -0.11300
C1298       C  0.17566531  0.43635605  0.12363031     0.11300
C1299       C  0.15836675  0.41226269  0.12403446    -0.03100
C1300       C  0.14182182  0.40743276  0.14788871    -0.05900
C1301       C  0.14107331  0.42654089  0.17023424    -0.16600
C1302       C  0.16029677  0.44915135  0.17087295     0.02300
C1303       C  0.18907692  0.44576247  0.09735893     0.12200
C1304       C  0.15593930  0.39292459  0.09865877     0.62900
H1305       H  0.12732073  0.39005441  0.14809610     0.12300
C1306       C  0.16293283  0.46944427  0.19528205     0.55000
H1307       H  0.19147446  0.47154153  0.14705188     0.08100
C1308       C  0.17563659  0.46566404  0.07978258    -0.05700
C1309       C  0.18688711  0.47053634  0.05313456    -0.06500
C1310       C  0.20992242  0.45506153  0.04286840    -0.16100
C1311       C  0.22459424  0.43655250  0.06130898    -0.01700
C1312       C  0.21400364  0.43266101  0.08866609    -0.09200
C1313       C  0.14860925  0.48054894  0.08841059     0.65100
H1314       H  0.17654509  0.48550437  0.03937540     0.10500
C1315       C  0.25030612  0.41999623  0.05209980     0.63500
H1316       H  0.22405254  0.41799837  0.10297338     0.07900
F1317       F  0.15397729  0.49571605  0.18674185    -0.19600
F1318       F  0.19087930  0.47104649  0.20356037    -0.15800
F1319       F  0.14744634  0.46138103  0.21844120    -0.19300
F1320       F  0.18188588  0.38117104  0.09284902    -0.22700
F1321       F  0.14663319  0.40779924  0.07538066    -0.24200
F1322       F  0.13716278  0.37131370  0.10325871    -0.18100
F1323       F  0.26092191  0.40334403  0.07357965    -0.20600
F1324       F  0.27138340  0.43820453  0.04404667    -0.21800
F1325       F  0.24329581  0.40265918  0.02981269    -0.19000
F1326       F  0.13860184  0.49828300  0.06751220    -0.19100
F1327       F  0.15341090  0.49646420  0.11223395    -0.22900
F1328       F  0.12782101  0.46111813  0.09394555    -0.24500
C1329       C  0.05053254  0.57503796  0.21026144    -0.11300
C1330       C  0.06794624  0.58083342  0.18726739     0.11300
C1331       C  0.08570080  0.55961806  0.17632401    -0.03100
C1332       C  0.08390650  0.53255358  0.18764668    -0.05900
C1333       C  0.06490403  0.52616037  0.20915882    -0.16600
C1334       C  0.04833819  0.54771701  0.22123125     0.02300
C1335       C  0.06439697  0.60774295  0.17211500     0.12200
C1336       C  0.10544935  0.56524426  0.15187659     0.62900
H1337       H  0.09639919  0.51571017  0.17882748     0.12300
C1338       C  0.02710158  0.54152301  0.24411529     0.55000
H1339       H  0.03736827  0.59173689  0.21831847     0.08100
C1340       C  0.04306022  0.61088768  0.15141984    -0.05700
C1341       C  0.04497591  0.63327630  0.13245317    -0.06500
C1342       C  0.06723731  0.65253342  0.13374831    -0.16100
C1343       C  0.08680093  0.65115262  0.15642377    -0.01700
C1344       C  0.08494863  0.62854087  0.17540523    -0.09200
C1345       C  0.01894806  0.59012312  0.14877487     0.65100
H1346       H  0.02956512  0.63534310  0.11565037     0.10500
C1347       C  0.11033454  0.67236288  0.15972997     0.63500
H1348       H  0.10056316  0.62590175  0.19192230     0.07900
F1349       F  0.00814177  0.52159350  0.23474577    -0.19600
F1350       F  0.01203202  0.56518355  0.25171317    -0.15800
F1351       F  0.04090168  0.53161236  0.26780227    -0.19300
F1352       F  0.12482380  0.58547311  0.15948360    -0.22700
F1353       F  0.09028968  0.57444789  0.12867765    -0.24200
F1354       F  0.12020798  0.54145979  0.14407045    -0.18100
F1355       F  0.09897353  0.69871067  0.16407113    -0.20600
F1356       F  0.12672505  0.67266415  0.13575859    -0.21800
F1357       F  0.12768597  0.66617747  0.18244839    -0.19000
F1358       F  0.00133286  0.59642886  0.12631603    -0.19100
F1359       F  0.00304105  0.59069452  0.17304814    -0.22900
F1360       F  0.02928051  0.56332561  0.14471743    -0.24500
C1361       C  0.02972538  0.33299393  0.12658949    -0.11300
C1362       C  0.00255193  0.32588577  0.13515490     0.11300
C1363       C  0.99445239  0.33041779  0.16337528    -0.03100
C1364       C  0.01262786  0.34589378  0.18110836    -0.05900
C1365       C  0.03859110  0.35603459  0.17132663    -0.16600
C1366       C  0.04807544  0.34783497  0.14428695     0.02300
C1367       C  0.98306453  0.31559769  0.11298799     0.12200
C1368       C  0.96687123  0.31901833  0.17441290     0.62900
H1369       H  0.00600287  0.35148461  0.20215570     0.12300
C1370       C  0.07730496  0.35481642  0.13387537     0.55000
H1371       H  0.03587459  0.32821736  0.10517626     0.08100
C1372       C  0.97015921  0.33455283  0.09389774    -0.05700
C1373       C  0.95854515  0.32397682  0.06883309    -0.06500
C1374       C  0.95984590  0.29529502  0.06212213    -0.16100
C1375       C  0.96955362  0.27610904  0.08289377    -0.01700
C1376       C  0.98157497  0.28671705  0.10789358    -0.09200
C1377       C  0.97026731  0.36603334  0.09905203     0.65100
H1378       H  0.95039124  0.33851192  0.05327393     0.10500
C1379       C  0.96745704  0.24468435  0.07887954     0.63500
H1380       H  0.99138795  0.27256359  0.12287744     0.07900
F1381       F  0.07859175  0.38278049  0.12645706    -0.19600
F1382       F  0.08438585  0.33902472  0.11049142    -0.15800
F1383       F  0.09685462  0.34906166  0.15481911    -0.19300
F1384       F  0.96666102  0.29019338  0.17154491    -0.22700
F1385       F  0.94444912  0.33014540  0.15942303    -0.24200
F1386       F  0.96319560  0.32532886  0.20259843    -0.18100
F1387       F  0.98842519  0.23545470  0.06106026    -0.20600
F1388       F  0.94137831  0.23796554  0.06765427    -0.21800
F1389       F  0.97031517  0.23062760  0.10424681    -0.19000
F1390       F  0.95442493  0.38031249  0.07907454    -0.19100
F1391       F  0.99749810  0.37611315  0.09805990    -0.22900
F1392       F  0.95903861  0.37193000  0.12515360    -0.24500
C1393       C  0.87372573  0.47082379  0.14990357    -0.11300
C1394       C  0.89281503  0.48885984  0.16320983     0.11300
C1395       C  0.88892694  0.51822367  0.16101187    -0.03100
C1396       C  0.86656237  0.52851577  0.14431652    -0.05900
C1397       C  0.84868438  0.51045342  0.12921194    -0.16600
C1398       C  0.85135489  0.48101094  0.13325766     0.02300
C1399       C  0.91942860  0.47663188  0.17435929     0.12200
C1400       C  0.90929233  0.53859656  0.17488083     0.62900
H1401       H  0.86420082  0.55088913  0.14125595     0.12300
C1402       C  0.83163049  0.45920537  0.12082341     0.55000
H1403       H  0.87699223  0.44838827  0.15167178     0.08100
C1404       C  0.92264644  0.46614896  0.20205474    -0.05700
C1405       C  0.94960957  0.45708767  0.21097671    -0.06500
C1406       C  0.97263180  0.45655491  0.19246559    -0.16100
C1407       C  0.96853313  0.46500970  0.16395164    -0.01700
C1408       C  0.94197592  0.47512845  0.15564900    -0.09200
C1409       C  0.89762419  0.46378263  0.22161365     0.65100
H1410       H  0.95286432  0.44999401  0.23241538     0.10500
C1411       C  0.99201680  0.46437959  0.14229695     0.63500
H1412       H  0.93849172  0.48235830  0.13428078     0.07900
F1413       F  0.82176450  0.44224823  0.14221979    -0.19600
F1414       F  0.84625829  0.44278220  0.10187586    -0.15800
F1415       F  0.80849633  0.47055730  0.10730267    -0.19300
F1416       F  0.93579463  0.53560378  0.16337284    -0.22700
F1417       F  0.91092407  0.53342524  0.20345645    -0.24200
F1418       F  0.90087017  0.56616116  0.17122455    -0.18100
F1419       F  0.00028730  0.43701503  0.13741422    -0.20600
F1420       F  0.01471157  0.47980057  0.15185581    -0.21800
F1421       F  0.98358261  0.47568395  0.11672939    -0.19000
F1422       F  0.90533242  0.45299775  0.24761643    -0.19100
F1423       F  0.87778452  0.44610504  0.20981156    -0.22900
F1424       F  0.88549690  0.48976728  0.22581196    -0.24500
C1425       C  0.50156240  0.17116372  0.64042339    -0.11300
C1426       C  0.48063376  0.16342387  0.65942351     0.11300
C1427       C  0.45361550  0.17568897  0.65749439    -0.03100
C1428       C  0.44815977  0.19489454  0.63564885    -0.05900
C1429       C  0.46903925  0.20289414  0.61621501    -0.16600
C1430       C  0.49648714  0.19072583  0.61880263     0.02300
C1431       C  0.48846724  0.14356510  0.68216561     0.12200
C1432       C  0.43097283  0.16915717  0.67898024     0.62900
H1433       H  0.42742780  0.20425195  0.63405815     0.12300
C1434       C  0.52073639  0.19826705  0.59952316     0.55000
H1435       H  0.52221546  0.16177397  0.64301543     0.08100
C1436       C  0.48844591  0.11428311  0.67805052    -0.05700
C1437       C  0.49727548  0.09692053  0.70033130    -0.06500
C1438       C  0.50744480  0.10783280  0.72606094    -0.16100
C1439       C  0.50792657  0.13756087  0.72976930    -0.01700
C1440       C  0.49809107  0.15472704  0.70766840    -0.09200
C1441       C  0.48005687  0.10149499  0.64991244     0.65100
H1442       H  0.49703234  0.07446153  0.69730667     0.10500
C1443       C  0.51916232  0.15166096  0.75630092     0.63500
H1444       H  0.49838820  0.17731856  0.70975804     0.07900
F1445       F  0.54510740  0.18354742  0.60603009    -0.19600
F1446       F  0.52670907  0.22643225  0.60232883    -0.15800
F1447       F  0.51375153  0.19216374  0.57188033    -0.19300
F1448       F  0.43945224  0.17858304  0.70520173    -0.22700
F1449       F  0.42640116  0.14061897  0.68035655    -0.24200
F1450       F  0.40559902  0.18196999  0.67230071    -0.18100
F1451       F  0.51727289  0.18058471  0.75482083    -0.20600
F1452       F  0.54729199  0.14491698  0.76013864    -0.21800
F1453       F  0.50377422  0.14316486  0.77939952    -0.19000
F1454       F  0.48068282  0.07250274  0.65066952    -0.19100
F1455       F  0.49849518  0.11023105  0.62931460    -0.22900
F1456       F  0.45308801  0.10974058  0.64253432    -0.24500
C1457       C  0.52112229  0.60904815  0.85169945    -0.11300
C1458       C  0.51421814  0.63756935  0.85140269     0.11300
C1459       C  0.49549374  0.64824783  0.83082636    -0.03100
C1460       C  0.48371578  0.62961779  0.81133621    -0.05900
C1461       C  0.49014845  0.60076624  0.81147365    -0.16600
C1462       C  0.50923706  0.59016558  0.83220717     0.02300
C1463       C  0.52577001  0.65589387  0.87366111     0.12200
C1464       C  0.48799688  0.67925675  0.82942344     0.62900
H1465       H  0.46919725  0.63773471  0.79567035     0.12300
C1466       C  0.51741703  0.55941403  0.83398764     0.55000
H1467       H  0.53570175  0.60170543  0.86772240     0.08100
C1468       C  0.51278114  0.65782071  0.90023867    -0.05700
C1469       C  0.52176125  0.67882410  0.91875308    -0.06500
C1470       C  0.54287149  0.69806250  0.91139480    -0.16100
C1471       C  0.55700301  0.69502624  0.88531494    -0.01700
C1472       C  0.54832288  0.67351319  0.86698776    -0.09200
C1473       C  0.48899539  0.63832129  0.90865451     0.65100
H1474       H  0.51177588  0.68077406  0.93909619     0.10500
C1475       C  0.57997752  0.71502366  0.87609157     0.63500
H1476       H  0.55812579  0.67106488  0.84660476     0.07900
F1477       F  0.49395814  0.54346407  0.84007613    -0.19600
F1478       F  0.53726237  0.55444669  0.85491079    -0.15800
F1479       F  0.52888036  0.55081113  0.80873957    -0.19300
F1480       F  0.51178948  0.69468705  0.82337716    -0.22700
F1481       F  0.47716561  0.68808279  0.85488549    -0.24200
F1482       F  0.46808045  0.68487027  0.80874742    -0.18100
F1483       F  0.60303329  0.71257467  0.89386238    -0.20600
F1484       F  0.56994438  0.74224737  0.87666241    -0.21800
F1485       F  0.58895482  0.70945606  0.84897742    -0.19000
F1486       F  0.47885135  0.64441456  0.93523225    -0.19100
F1487       F  0.49854334  0.61094301  0.90886994    -0.22900
F1488       F  0.46684560  0.64070389  0.88975421    -0.24500
C1489       C  0.57560386  0.87527239  0.87209576    -0.11300
C1490       C  0.55319734  0.87184096  0.85312017     0.11300
C1491       C  0.53882888  0.84595233  0.85187536    -0.03100
C1492       C  0.54471977  0.82565519  0.87273885    -0.05900
C1493       C  0.56460249  0.83080685  0.89413898    -0.16600
C1494       C  0.58148959  0.85519840  0.89289235     0.02300
C1495       C  0.54322027  0.89732463  0.83816794     0.12200
C1496       C  0.51744847  0.84010090  0.82877172     0.62900
H1497       H  0.53263527  0.80646806  0.87352837     0.12300
C1498       C  0.60483410  0.86065677  0.91416085     0.55000
H1499       H  0.58686651  0.89498675  0.87205170     0.08100
C1500       C  0.52550086  0.91682481  0.85206036    -0.05700
C1501       C  0.52143500  0.94331747  0.83991877    -0.06500
C1502       C  0.53468508  0.95097232  0.81481835    -0.16100
C1503       C  0.55106873  0.93112088  0.80006513    -0.01700
C1504       C  0.55513219  0.90433939  0.81209268    -0.09200
C1505       C  0.51210654  0.91031550  0.88037257     0.65100
H1506       H  0.50891512  0.95894452  0.85072128     0.10500
C1507       C  0.56529066  0.93887133  0.77268790     0.63500
H1508       H  0.56882766  0.88922697  0.80203675     0.07900
F1509       F  0.62162189  0.88291867  0.90616278    -0.19600
F1510       F  0.59336708  0.86696455  0.94003921    -0.15800
F1511       F  0.62183379  0.83719210  0.91664267    -0.19300
F1512       F  0.53051329  0.84192421  0.80290427    -0.22700
F1513       F  0.49571078  0.85938662  0.82963503    -0.24200
F1514       F  0.50601110  0.81357626  0.83125431    -0.18100
F1515       F  0.58372098  0.96082838  0.77722977    -0.20600
F1516       F  0.54517889  0.94694035  0.75309200    -0.21800
F1517       F  0.58032470  0.91660623  0.76161936    -0.19000
F1518       F  0.49466678  0.93179824  0.88932041    -0.19100
F1519       F  0.53274880  0.90644851  0.90065792    -0.22900
F1520       F  0.49605472  0.88631135  0.87842439    -0.24500
C1521       C  0.69606690  0.64222800  0.02097620    -0.11300
C1522       C  0.67401068  0.64725376  0.03981693     0.11300
C1523       C  0.67265135  0.63192770  0.06530929    -0.03100
C1524       C  0.69343527  0.61150472  0.07081723    -0.05900
C1525       C  0.71503297  0.60592082  0.05153878    -0.16600
C1526       C  0.71698605  0.62207963  0.02658542     0.02300
C1527       C  0.65194827  0.66771814  0.03127754     0.12200
C1528       C  0.64926317  0.63695060  0.08641736     0.62900
H1529       H  0.69247004  0.59906044  0.08986022     0.12300
C1530       C  0.74126196  0.61848550  0.00618727     0.55000
H1531       H  0.69647824  0.65399322  0.00147624     0.08100
C1532       C  0.65681733  0.69687762  0.03137476    -0.05700
C1533       C  0.63612154  0.71462983  0.01981877    -0.06500
C1534       C  0.61025983  0.70452998  0.00934674    -0.16100
C1535       C  0.60485774  0.67521095  0.01082177    -0.01700
C1536       C  0.62629812  0.65734081  0.02100173    -0.09200
C1537       C  0.68377876  0.70924089  0.04349915     0.65100
H1538       H  0.64040068  0.73664419  0.01842177     0.10500
C1539       C  0.57710812  0.66238985  0.00132849     0.63500
H1540       H  0.62337502  0.63485910  0.02081101     0.07900
F1541       F  0.76661745  0.61888355  0.02072759    -0.19600
F1542       F  0.74187272  0.63976015  0.98638051    -0.15800
F1543       F  0.73861166  0.59333785  0.99202703    -0.19300
F1544       F  0.62358543  0.62960487  0.07477929    -0.22700
F1545       F  0.64850493  0.66491316  0.09393270    -0.24200
F1546       F  0.65314399  0.62130460  0.11068120    -0.18100
F1547       F  0.57217865  0.66843246  0.97324159    -0.20600
F1548       F  0.55540662  0.67289656  0.01754804    -0.21800
F1549       F  0.57703255  0.63353088  0.00429181    -0.19000
F1550       F  0.68280100  0.73821551  0.04429637    -0.19100
F1551       F  0.70655609  0.70144906  0.02730079    -0.22900
F1552       F  0.68790433  0.69977129  0.07072266    -0.24500
C1553       C  0.81088121  0.15167126  0.05194563    -0.11300
C1554       C  0.82530788  0.14503602  0.02716254     0.11300
C1555       C  0.82024368  0.11925253  0.01347808    -0.03100
C1556       C  0.80009164  0.10111927  0.02484051    -0.05900
C1557       C  0.78527720  0.10765160  0.04958670    -0.16600
C1558       C  0.79072861  0.13345656  0.06349481     0.02300
C1559       C  0.84576671  0.16552497  0.01601754     0.12200
C1560       C  0.83627185  0.11079373  0.98716811     0.62900
H1561       H  0.79589948  0.08137291  0.01443551     0.12300
C1562       C  0.77605306  0.14163469  0.09061530     0.55000
H1563       H  0.81557617  0.17143281  0.06211804     0.08100
C1564       C  0.83704095  0.18893502  0.99988039    -0.05700
C1565       C  0.85765843  0.20725103  0.98956360    -0.06500
C1566       C  0.88642316  0.20281773  0.99497885    -0.16100
C1567       C  0.89517563  0.17891464  0.01059173    -0.01700
C1568       C  0.87446099  0.16096354  0.02138358    -0.09200
C1569       C  0.80609342  0.19456771  0.99376181     0.65100
H1570       H  0.85142107  0.22555142  0.97753073     0.10500
C1571       C  0.92610460  0.17149302  0.01469543     0.63500
H1572       H  0.88048417  0.14289905  0.03387532     0.07900
F1573       F  0.78651240  0.16638700  0.10164120    -0.19600
F1574       F  0.77992590  0.12089241  0.11063412    -0.15800
F1575       F  0.74758034  0.14542454  0.08553607    -0.19300
F1576       F  0.86458908  0.10787632  0.99347319    -0.22700
F1577       F  0.83298547  0.13096456  0.96651486    -0.24200
F1578       F  0.82686712  0.08555218  0.97632571    -0.18100
F1579       F  0.92955295  0.14515443  0.02647613    -0.20600
F1580       F  0.93887234  0.19062728  0.03241510    -0.21800
F1581       F  0.93960069  0.17153964  0.98896181    -0.19000
F1582       F  0.80235854  0.21746767  0.97622895    -0.19100
F1583       F  0.79210576  0.19988936  0.01862795    -0.22900
F1584       F  0.79406414  0.17157222  0.98077351    -0.24500
C1585       C  0.65479757  0.06395092  0.87823105    -0.11300
C1586       C  0.65055542  0.04733584  0.90214574     0.11300
C1587       C  0.62637472  0.03020226  0.90400081    -0.03100
C1588       C  0.60700625  0.03045658  0.88162187    -0.05900
C1589       C  0.61029785  0.04808002  0.85814923    -0.16600
C1590       C  0.63492448  0.06480656  0.85604457     0.02300
C1591       C  0.66974707  0.05058322  0.92657031     0.12200
C1592       C  0.62027550  0.01276180  0.93012265     0.62900
H1593       H  0.58826607  0.01765437  0.88291630     0.12300
C1594       C  0.63972521  0.08441465  0.83137696     0.55000
H1595       H  0.67334557  0.07708216  0.87766701     0.08100
C1596       C  0.69358760  0.03324931  0.93081718    -0.05700
C1597       C  0.70643180  0.03291142  0.95765682    -0.06500
C1598       C  0.69586353  0.04936454  0.97972236    -0.16100
C1599       C  0.67468964  0.06956242  0.97399081    -0.01700
C1600       C  0.66183584  0.06973389  0.94736374    -0.09200
C1601       C  0.70486154  0.01505161  0.90723448     0.65100
H1602       H  0.72374773  0.01873412  0.96199198     0.10500
C1603       C  0.66397263  0.08948446  0.99627815     0.63500
H1604       H  0.64400430  0.08342604  0.94330766     0.07900
F1605       F  0.64199619  0.06905015  0.80681079    -0.19600
F1606       F  0.66420288  0.09981185  0.83458892    -0.15800
F1607       F  0.61749759  0.10309180  0.82902250    -0.19300
F1608       F  0.61657809  0.03013453  0.95309040    -0.22700
F1609       F  0.64237273  0.99463104  0.93559941    -0.24200
F1610       F  0.59608787  0.99690079  0.92697744    -0.18100
F1611       F  0.65077118  0.11252925  0.98429909    -0.20600
F1612       F  0.68604620  0.09921405  0.01269470    -0.21800
F1613       F  0.64471000  0.07568026  0.01287134    -0.19000
F1614       F  0.72849963  0.00009878  0.91559880    -0.19100
F1615       F  0.71217389  0.03182895  0.88471615    -0.22900
F1616       F  0.68460529  0.99617632  0.89847126    -0.24500
C1617       C  0.69167112  0.91207273  0.01445053    -0.11300
C1618       C  0.67388062  0.89923208  0.03382410     0.11300
C1619       C  0.67330375  0.90849001  0.06197202    -0.03100
C1620       C  0.68644977  0.93396357  0.06848710    -0.05900
C1621       C  0.70111379  0.94932033  0.04796057    -0.16600
C1622       C  0.70607380  0.93682748  0.02119925     0.02300
C1623       C  0.65391174  0.87820563  0.02314898     0.12200
C1624       C  0.65870873  0.89158565  0.08468726     0.62900
H1625       H  0.68421962  0.94264931  0.08938297     0.12300
C1626       C  0.72503892  0.94982568  0.99919319     0.55000
H1627       H  0.69268446  0.90347194  0.99337283     0.08100
C1628       C  0.62668425  0.88615020  0.01372872    -0.05700
C1629       C  0.60858575  0.86525866  0.00367834    -0.06500
C1630       C  0.61730840  0.83725510  0.00174819    -0.16100
C1631       C  0.64466626  0.82946124  0.01085701    -0.01700
C1632       C  0.66271279  0.85028401  0.02139481    -0.09200
C1633       C  0.61711883  0.91662747  0.01345162     0.65100
H1634       H  0.58754374  0.87072859  0.99658946     0.10500
C1635       C  0.65379615  0.79912829  0.01156196     0.63500
H1636       H  0.68373878  0.84497177  0.02864321     0.07900
F1637       F  0.71368014  0.97493376  0.99012719    -0.19600
F1638       F  0.72812838  0.93270041  0.97587449    -0.15800
F1639       F  0.75158280  0.95416582  0.01054299    -0.19300
F1640       F  0.67061429  0.86513598  0.08598938    -0.22700
F1641       F  0.63030569  0.88899428  0.07875282    -0.24200
F1642       F  0.66152931  0.90391747  0.11093044    -0.18100
F1643       F  0.65389713  0.78806755  0.98466909    -0.20600
F1644       F  0.63513278  0.78451518  0.02817557    -0.21800
F1645       F  0.68056462  0.79588989  0.02284943    -0.19000
F1646       F  0.58985311  0.91950896  0.00331630    -0.19100
F1647       F  0.63462691  0.93211361  0.99632881    -0.22900
F1648       F  0.61793497  0.92766863  0.04032245    -0.24500
C1649       C  0.51452616  0.78568142  0.11004996    -0.11300
C1650       C  0.49353605  0.80639153  0.11172728     0.11300
C1651       C  0.47993525  0.81582721  0.08682431    -0.03100
C1652       C  0.48879302  0.80501590  0.06101336    -0.05900
C1653       C  0.51141765  0.78609871  0.05891361    -0.16600
C1654       C  0.52393772  0.77532492  0.08391530     0.02300
C1655       C  0.49154429  0.82253567  0.13815949     0.12200
C1656       C  0.45738821  0.83854307  0.08561186     0.62900
H1657       H  0.47865731  0.81271480  0.04197108     0.12300
C1658       C  0.54807736  0.75440118  0.08318636     0.55000
H1659       H  0.52482281  0.77914699  0.12938892     0.08100
C1660       C  0.47066400  0.81781592  0.15867851    -0.05700
C1661       C  0.46699098  0.83799299  0.18005733    -0.06500
C1662       C  0.48372714  0.86224704  0.18111644    -0.16100
C1663       C  0.50673912  0.86496405  0.16234775    -0.01700
C1664       C  0.51004236  0.84504938  0.14101962    -0.09200
C1665       C  0.45179958  0.79231935  0.15701113     0.65100
H1666       H  0.44988542  0.83588664  0.19487728     0.10500
C1667       C  0.52800787  0.88853388  0.16476702     0.63500
H1668       H  0.52635007  0.84766263  0.12537808     0.07900
F1669       F  0.53911252  0.72976947  0.07075146    -0.19600
F1670       F  0.55790791  0.74796744  0.10993016    -0.15800
F1671       F  0.57027880  0.76536101  0.06804844    -0.19300
F1672       F  0.46757886  0.86119473  0.07066815    -0.22700
F1673       F  0.44893736  0.84797884  0.11169602    -0.24200
F1674       F  0.43388826  0.82823697  0.07175314    -0.18100
F1675       F  0.53735692  0.89040032  0.19232014    -0.20600
F1676       F  0.51599168  0.91364273  0.15647627    -0.21800
F1677       F  0.55128772  0.88388462  0.14796267    -0.19000
F1678       F  0.43330510  0.79116957  0.17939042    -0.19100
F1679       F  0.46817724  0.76831477  0.15745394    -0.22900
F1680       F  0.43622166  0.79291861  0.13231955    -0.24500
C1681       C  0.49673639  0.83459905  0.33536839    -0.11300
C1682       C  0.51149224  0.84653538  0.35794292     0.11300
C1683       C  0.51641065  0.87572276  0.35844469    -0.03100
C1684       C  0.50602697  0.89216689  0.33605451    -0.05900
C1685       C  0.49081874  0.88037067  0.31347179    -0.16600
C1686       C  0.48584411  0.85098110  0.31320254     0.02300
C1687       C  0.52253108  0.82746387  0.38008243     0.12200
C1688       C  0.53276298  0.88932584  0.38238246     0.62900
H1689       H  0.50958160  0.91456556  0.33613451     0.12300
C1690       C  0.46987041  0.83657912  0.28948976     0.55000
H1691       H  0.49372998  0.81211343  0.33542677     0.08100
C1692       C  0.50525392  0.81704157  0.40175587    -0.05700
C1693       C  0.51702185  0.79818555  0.42126271    -0.06500
C1694       C  0.54513366  0.78860891  0.41938322    -0.16100
C1695       C  0.56224716  0.79888407  0.39713696    -0.01700
C1696       C  0.55047525  0.81825363  0.37796206    -0.09200
C1697       C  0.47438312  0.82539637  0.40402506     0.65100
H1698       H  0.50389613  0.79047686  0.43808310     0.10500
C1699       C  0.59246145  0.78928443  0.39288409     0.63500
H1700       H  0.56290598  0.82621624  0.36069435     0.07900
F1701       F  0.47037083  0.80769401  0.29219570    -0.19600
F1702       F  0.48196088  0.84321213  0.26397467    -0.15800
F1703       F  0.44197337  0.84497564  0.28954411    -0.19300
F1704       F  0.56011275  0.87933850  0.38274172    -0.22700
F1705       F  0.52026965  0.88324319  0.40785487    -0.24200
F1706       F  0.53371260  0.91818074  0.37961456    -0.18100
F1707       F  0.59329067  0.76048150  0.38978448    -0.20600
F1708       F  0.60882182  0.79720474  0.41571241    -0.21800
F1709       F  0.60426255  0.80095520  0.36903379    -0.19000
F1710       F  0.46161855  0.81335202  0.42718252    -0.19100
F1711       F  0.45984412  0.81677752  0.38028066    -0.22900
F1712       F  0.47196215  0.85413623  0.40652160    -0.24500
C1713       C  0.60294965  0.98572966  0.23363480    -0.11300
C1714       C  0.61110052  0.98088498  0.20574421     0.11300
C1715       C  0.59443391  0.96352614  0.18824922    -0.03100
C1716       C  0.56876342  0.95364924  0.19858207    -0.05900
C1717       C  0.55885130  0.96071460  0.22555715    -0.16600
C1718       C  0.57688906  0.97611106  0.24397974     0.02300
C1719       C  0.63459804  0.99730019  0.19363967     0.12200
C1720       C  0.60307652  0.95642774  0.15824457     0.62900
H1721       H  0.55547860  0.94154977  0.18468839     0.12300
C1722       C  0.56870696  0.98335683  0.27398025     0.55000
H1723       H  0.61642660  0.99867843  0.24667636     0.08100
C1724       C  0.62987028  0.02485959  0.18351974    -0.05700
C1725       C  0.64944136  0.03645340  0.16485779    -0.06500
C1726       C  0.67281554  0.02113832  0.15561666    -0.16100
C1727       C  0.67912304  0.99487693  0.16799183    -0.01700
C1728       C  0.65997009  0.98352143  0.18742520    -0.09200
C1729       C  0.60343398  0.04124863  0.19099364     0.65100
H1730       H  0.64576132  0.05700031  0.15593704     0.10500
C1731       C  0.70480257  0.97819961  0.15914788     0.63500
H1732       H  0.66338560  0.96273555  0.19595326     0.07900
F1733       F  0.54723398  0.00300909  0.27377939    -0.19600
F1734       F  0.59108576  0.99454575  0.28900554    -0.15800
F1735       F  0.56002610  0.95947516  0.28793508    -0.19300
F1736       F  0.62789697  0.94122954  0.15867462    -0.22700
F1737       F  0.60690004  0.98069738  0.14284904    -0.24200
F1738       F  0.58297739  0.94048545  0.14442748    -0.18100
F1739       F  0.72890043  0.99360223  0.16433631    -0.20600
F1740       F  0.70306953  0.97222937  0.13074034    -0.21800
F1741       F  0.70704723  0.95312827  0.17366586    -0.19000
F1742       F  0.60276991  0.06730654  0.17818948    -0.19100
F1743       F  0.60243848  0.04534316  0.21977624    -0.22900
F1744       F  0.57972711  0.02671640  0.18241631    -0.24500
C1745       C  0.16573834  0.81107479  0.03158936    -0.11300
C1746       C  0.15456976  0.83073565  0.01273207     0.11300
C1747       C  0.12641655  0.82824013  0.00318695    -0.03100
C1748       C  0.11013380  0.80592872  0.01334467    -0.05900
C1749       C  0.12106346  0.78637756  0.03272840    -0.16600
C1750       C  0.14934860  0.78920860  0.04242702     0.02300
C1751       C  0.17334881  0.85341817  0.00313291     0.12200
C1752       C  0.11359876  0.84910318  0.98256049     0.62900
H1753       H  0.08859463  0.80355273  0.00611197     0.12300
C1754       C  0.16213396  0.77023927  0.06488484     0.55000
H1755       H  0.18755256  0.81329665  0.03801330     0.08100
C1756       C  0.18065336  0.87623444  0.02072921    -0.05700
C1757       C  0.20017326  0.89587904  0.01079999    -0.06500
C1758       C  0.21217689  0.89346084  0.98397120    -0.16100
C1759       C  0.20370416  0.87135997  0.96589064    -0.01700
C1760       C  0.18499199  0.85117587  0.97622972    -0.09200
C1761       C  0.16798361  0.87978481  0.04982452     0.65100
H1762       H  0.20652987  0.91319086  0.02412357     0.10500
C1763       C  0.21332373  0.86956696  0.93553237     0.63500
H1764       H  0.17926648  0.83332848  0.96335265     0.07900
F1765       F  0.18834994  0.77953632  0.07371600    -0.19600
F1766       F  0.16546149  0.74344603  0.05434117    -0.15800
F1767       F  0.14486109  0.76960567  0.08822841    -0.19300
F1768       F  0.12701691  0.84718055  0.95690377    -0.22700
F1769       F  0.11647624  0.87603682  0.99286349    -0.24200
F1770       F  0.08519233  0.84420399  0.97807795    -0.18100
F1771       F  0.24156106  0.86283493  0.93472478    -0.20600
F1772       F  0.20888231  0.89497027  0.92216249    -0.21800
F1773       F  0.19874287  0.84927591  0.92061981    -0.19000
F1774       F  0.17540067  0.90514342  0.06188076    -0.19100
F1775       F  0.17737051  0.85862473  0.06741456    -0.22900
F1776       F  0.13892004  0.87884017  0.04808115    -0.24500
C1777       C  0.42486772  0.82124170  0.93079014    -0.11300
C1778       C  0.40865012  0.82361836  0.95520990     0.11300
C1779       C  0.41493222  0.80662730  0.97885726    -0.03100
C1780       C  0.43968287  0.79043069  0.97850791    -0.05900
C1781       C  0.45804560  0.79118463  0.95546058    -0.16600
C1782       C  0.44945845  0.80491298  0.93036130     0.02300
C1783       C  0.38724026  0.84616896  0.95644052     0.12200
C1784       C  0.39650321  0.80692237  0.00486985     0.62900
H1785       H  0.44622774  0.77933240  0.99734948     0.12300
C1786       C  0.46618963  0.80405194  0.90327474     0.55000
H1787       H  0.41909769  0.83349720  0.91239421     0.08100
C1788       C  0.39503788  0.87427992  0.96187786    -0.05700
C1789       C  0.37380235  0.89473216  0.96333954    -0.06500
C1790       C  0.34537462  0.88810035  0.95873530    -0.16100
C1791       C  0.33761682  0.85988083  0.95353245    -0.01700
C1792       C  0.35886860  0.83932385  0.95233761    -0.09200
C1793       C  0.42569923  0.88270518  0.96571333     0.65100
H1794       H  0.37937086  0.91639309  0.96717064     0.10500
C1795       C  0.30711730  0.85135381  0.94982969     0.63500
H1796       H  0.35356400  0.81769874  0.94797473     0.07900
F1797       F  0.47932858  0.82955266  0.89933919    -0.19600
F1798       F  0.48625252  0.78297376  0.90334965    -0.15800
F1799       F  0.44819238  0.79918084  0.88078022    -0.19300
F1800       F  0.36965494  0.79813441  0.99782794    -0.22700
F1801       F  0.39512738  0.83371340  0.01584728    -0.24200
F1802       F  0.40680448  0.78924534  0.02566163    -0.18100
F1803       F  0.29689830  0.86180967  0.92462460    -0.20600
F1804       F  0.29132616  0.86171193  0.97190561    -0.21800
F1805       F  0.30400531  0.82252463  0.94941785    -0.19000
F1806       F  0.42838542  0.91075955  0.97257684    -0.19100
F1807       F  0.44023571  0.87814212  0.94100330    -0.22900
F1808       F  0.43798009  0.86713491  0.98708193    -0.24500
C1809       C  0.36871345  0.97276487  0.85186619    -0.11300
C1810       C  0.36355573  0.99968172  0.84133759     0.11300
C1811       C  0.33801457  0.01354057  0.84759392    -0.03100
C1812       C  0.32047177  0.00182663  0.86833190    -0.05900
C1813       C  0.32783859  0.97659380  0.88178270    -0.16600
C1814       C  0.35118196  0.96087530  0.87215160     0.02300
C1815       C  0.38770498  0.01391113  0.82818989     0.12200
C1816       C  0.32947451  0.04010355  0.83211642     0.62900
H1817       H  0.30179232  0.01292012  0.87517043     0.12300
C1818       C  0.35829332  0.93221195  0.88412376     0.55000
H1819       H  0.38804043  0.96221251  0.84596677     0.08100
C1820       C  0.40721819  0.02878711  0.84521425    -0.05700
C1821       C  0.43314303  0.03620404  0.83355762    -0.06500
C1822       C  0.44119495  0.02694649  0.80676356    -0.16100
C1823       C  0.42156986  0.01265140  0.78945156    -0.01700
C1824       C  0.39462078  0.00697459  0.80034167    -0.09200
C1825       C  0.40226745  0.03396422  0.87650763     0.65100
H1826       H  0.44859910  0.04703856  0.84639416     0.10500
C1827       C  0.42983192  0.00140844  0.76078940     0.63500
H1828       H  0.37960061  0.99492845  0.78812721     0.07900
F1829       F  0.36788060  0.93489979  0.91149600    -0.19600
F1830       F  0.37905650  0.91889721  0.86871633    -0.15800
F1831       F  0.33459072  0.91543884  0.88362850    -0.19300
F1832       F  0.32737072  0.03441313  0.80363957    -0.22700
F1833       F  0.34923104  0.06095237  0.83603194    -0.24200
F1834       F  0.30369140  0.05011715  0.84119543    -0.18100
F1835       F  0.45239449  0.98318410  0.76365243    -0.20600
F1836       F  0.43733417  0.02334329  0.74339652    -0.21800
F1837       F  0.40795535  0.98703179  0.74797090    -0.19000
F1838       F  0.42399490  0.04905869  0.88874025    -0.19100
F1839       F  0.40041837  0.00865071  0.89051405    -0.22900
F1840       F  0.37768142  0.04885644  0.88058888    -0.24500
C1841       C  0.37930681  0.95081139  0.12272305    -0.11300
C1842       C  0.35144658  0.94604907  0.13080742     0.11300
C1843       C  0.34540525  0.93802924  0.15876290    -0.03100
C1844       C  0.36784209  0.93615276  0.17825649    -0.05900
C1845       C  0.39572594  0.94194556  0.17036603    -0.16600
C1846       C  0.40170754  0.94898127  0.14198626     0.02300
C1847       C  0.32956458  0.94971892  0.10878983     0.12200
C1848       C  0.31560531  0.93100883  0.16765944     0.62900
H1849       H  0.36381119  0.93004981  0.19981273     0.12300
C1850       C  0.43157926  0.95366473  0.13163528     0.55000
H1851       H  0.38326710  0.95631872  0.10097466     0.08100
C1852       C  0.32139116  0.97679768  0.09966119    -0.05700
C1853       C  0.30678233  0.97941694  0.07401789    -0.06500
C1854       C  0.30017602  0.95590882  0.05763036    -0.16100
C1855       C  0.30610887  0.92869646  0.06792327    -0.01700
C1856       C  0.32095544  0.92604734  0.09352804    -0.09200
C1857       C  0.32979576  0.00294030  0.11587184     0.65100
H1858       H  0.30205642  0.00002970  0.06561394     0.10500
C1859       C  0.29837346  0.90279477  0.05108110     0.63500
H1860       H  0.32765436  0.90558378  0.10085554     0.07900
F1861       F  0.44252297  0.97775692  0.14351791    -0.19600
F1862       F  0.43256961  0.95667304  0.10266208    -0.15800
F1863       F  0.44833695  0.93099378  0.13879289    -0.19300
F1864       F  0.30657555  0.90737099  0.15347154    -0.22700
F1865       F  0.29760984  0.95298940  0.16140390    -0.24200
F1866       F  0.31399776  0.92579791  0.19627805    -0.18100
F1867       F  0.30577028  0.87838377  0.06506840    -0.20600
F1868       F  0.31215281  0.90304458  0.02556927    -0.21800
F1869       F  0.26961700  0.90236211  0.04629570    -0.19000
F1870       F  0.31580139  0.02643641  0.10590225    -0.19100
F1871       F  0.35841685  0.00740810  0.11335494    -0.22900
F1872       F  0.32326934  0.99996918  0.14402184    -0.24500
C1873       C  0.49175730  0.33334827  0.13795061    -0.11300
C1874       C  0.48506545  0.33053436  0.16642219     0.11300
C1875       C  0.46786451  0.30818334  0.17533762    -0.03100
C1876       C  0.45876183  0.28854190  0.15526157    -0.05900
C1877       C  0.46610285  0.29058608  0.12661692    -0.16600
C1878       C  0.48294520  0.31367257  0.11771140     0.02300
C1879       C  0.49756208  0.35077871  0.18653536     0.12200
C1880       C  0.45919166  0.30509199  0.20592671     0.62900
H1881       H  0.44562841  0.27134282  0.16200136     0.12300
C1882       C  0.49225428  0.31778998  0.08737905     0.55000
H1883       H  0.50456189  0.35105983  0.13186847     0.08100
C1884       C  0.52594496  0.34832166  0.19553301    -0.05700
C1885       C  0.53661209  0.36824078  0.21448794    -0.06500
C1886       C  0.51984838  0.39020446  0.22467501    -0.16100
C1887       C  0.49126457  0.39226563  0.21624980    -0.01700
C1888       C  0.48074531  0.37275844  0.19663172    -0.09200
C1889       C  0.54485450  0.32473763  0.18523014     0.65100
H1890       H  0.55832924  0.36689666  0.22152093     0.10500
C1891       C  0.47167877  0.41386430  0.22907619     0.63500
H1892       H  0.45913402  0.37418973  0.18932632     0.07900
F1893       F  0.50691161  0.29443586  0.07827461    -0.19600
F1894       F  0.50988523  0.34065329  0.08443976    -0.15800
F1895       F  0.46899847  0.32233919  0.07026871    -0.19300
F1896       F  0.44268655  0.32766317  0.21370072    -0.22700
F1897       F  0.48279503  0.30401828  0.22309541    -0.24200
F1898       F  0.44377923  0.28092864  0.21037118    -0.18100
F1899       F  0.48057916  0.44053394  0.22225935    -0.20600
F1900       F  0.47162093  0.41082890  0.25803400    -0.21800
F1901       F  0.44424978  0.41082366  0.21950120    -0.19000
F1902       F  0.57080852  0.32483005  0.19868906    -0.19100
F1903       F  0.54942036  0.32758495  0.15666970    -0.22900
F1904       F  0.53235424  0.29911524  0.19028877    -0.24500
C1905       C  0.45606424  0.13744219  0.19292949    -0.11300
C1906       C  0.45181297  0.10980762  0.18361436     0.11300
C1907       C  0.44307968  0.10477346  0.15549032    -0.03100
C1908       C  0.44085194  0.12756614  0.13700835    -0.05900
C1909       C  0.44611748  0.15502697  0.14591995    -0.16600
C1910       C  0.45301517  0.16040074  0.17438311     0.02300
C1911       C  0.45798530  0.08603787  0.20284500     0.12200
C1912       C  0.43621245  0.07543844  0.14498071     0.62900
H1913       H  0.43499546  0.12413981  0.11519155     0.12300
C1914       C  0.45747183  0.19009029  0.18471811     0.55000
H1915       H  0.46224588  0.14079044  0.21465181     0.08100
C1916       C  0.48520282  0.07392823  0.20416316    -0.05700
C1917       C  0.48836512  0.04749290  0.21679018    -0.06500
C1918       C  0.46526260  0.03296957  0.22785434    -0.16100
C1919       C  0.43849620  0.04614161  0.22865452    -0.01700
C1920       C  0.43542753  0.07288235  0.21640357    -0.09200
C1921       C  0.51047488  0.08829778  0.19108632     0.65100
H1922       H  0.50871990  0.03715933  0.21668733     0.10500
C1923       C  0.41294737  0.03116900  0.24031042     0.63500
H1924       H  0.41490840  0.08281690  0.21535791     0.07900
F1925       F  0.46444759  0.19081797  0.21305445    -0.19600
F1926       F  0.43300786  0.20543835  0.18078681    -0.15800
F1927       F  0.47901033  0.20249837  0.16979921    -0.19300
F1928       F  0.41369032  0.06483534  0.15984129    -0.22700
F1929       F  0.45919269  0.05791386  0.14853114    -0.24200
F1930       F  0.42896842  0.07533426  0.11669697    -0.18100
F1931       F  0.38872101  0.04721610  0.23780116    -0.20600
F1932       F  0.41717303  0.02532732  0.26854051    -0.21800
F1933       F  0.40868946  0.00642282  0.22578053    -0.19000
F1934       F  0.53498235  0.07290305  0.19480907    -0.19100
F1935       F  0.51434301  0.11420757  0.20348690    -0.22900
F1936       F  0.50618629  0.09186572  0.16248743    -0.24500
C1937       C  0.60433980  0.12900192  0.07655249    -0.11300
C1938       C  0.61369075  0.15635244  0.07179248     0.11300
C1939       C  0.64281864  0.16241903  0.07309322    -0.03100
C1940       C  0.66196516  0.14003490  0.07703900    -0.05900
C1941       C  0.65251109  0.11232019  0.07991735    -0.16600
C1942       C  0.62318218  0.10671628  0.08037748     0.02300
C1943       C  0.59147184  0.17753603  0.06623258     0.05000
C1944       C  0.65342383  0.19222945  0.07050059     0.62900
H1945       H  0.68443854  0.14387002  0.07715254     0.12300
C1946       C  0.61157381  0.07745738  0.08525906     0.55000
H1947       H  0.58185071  0.12516389  0.07636073     0.08100
C1948       C  0.57682797  0.17795462  0.04011764    -0.05700
C1949       C  0.55005256  0.19049265  0.03897573    -0.06500
C1950       C  0.53773494  0.20242396  0.06290194    -0.16100
C1951       C  0.55337450  0.20431017  0.08826471    -0.01700
C1952       C  0.58020653  0.19170562  0.08950591    -0.09200
C1953       C  0.58881963  0.16415776  0.01387929     0.65100
H1954       H  0.53767717  0.18954690  0.01974911     0.10500
C1955       C  0.54087120  0.21762777  0.11436280     0.63500
H1956       H  0.59155624  0.19071234  0.10933535     0.07900
F1957       F  0.61728794  0.06043272  0.06247887    -0.19600
F1958       F  0.58267561  0.07772477  0.08903683    -0.15800
F1959       F  0.62364491  0.06607928  0.10916031    -0.19300
F1960       F  0.64269455  0.20827619  0.09216981    -0.22700
F1961       F  0.64488562  0.20364358  0.04511184    -0.24200
F1962       F  0.68253008  0.19346414  0.07189791    -0.18100
F1963       F  0.51666542  0.20356000  0.12193628    -0.20600
F1964       F  0.53433197  0.24535497  0.10891515    -0.21800
F1965       F  0.55940864  0.21683127  0.13697074    -0.19000
F1966       F  0.57120812  0.16756787  0.99076625    -0.19100
F1967       F  0.59254139  0.13574615  0.01811331    -0.22900
F1968       F  0.61447682  0.17603318  0.00746943    -0.24500
C1969       C  0.32814335  0.15083233  0.02539328    -0.11300
C1970       C  0.32957128  0.12233595  0.03233854     0.11300
C1971       C  0.34840492  0.11293482  0.05356793    -0.03100
C1972       C  0.36508571  0.13274748  0.06751128    -0.05900
C1973       C  0.36531795  0.16101505  0.05929259    -0.16600
C1974       C  0.34628416  0.17047891  0.03810441     0.02300
C1975       C  0.31442585  0.10200760  0.01446585     0.12200
C1976       C  0.35277569  0.08188415  0.05974954     0.62900
H1977       H  0.37984105  0.12586561  0.08359406     0.12300
C1978       C  0.34647342  0.20050426  0.02744175     0.55000
H1979       H  0.31388614  0.15719026  0.00867017     0.08100
C1980       C  0.28871773  0.08996757  0.02265560    -0.05700
C1981       C  0.28026103  0.06498946  0.00949395    -0.06500
C1982       C  0.29650279  0.05241956  0.98809316    -0.16100
C1983       C  0.31949085  0.06772599  0.97661705    -0.01700
C1984       C  0.32823944  0.09220390  0.99048735    -0.09200
C1985       C  0.27071337  0.10339060  0.04531109     0.65100
H1986       H  0.26163296  0.05440339  0.01700149     0.10500
C1987       C  0.33568144  0.05828971  0.95075416     0.63500
H1988       H  0.34729149  0.10278468  0.98400167     0.07900
F1989       F  0.32744520  0.20455267  0.00559923    -0.19600
F1990       F  0.37298977  0.20717121  0.01758024    -0.15800
F1991       F  0.33929951  0.21858608  0.04899394    -0.19300
F1992       F  0.36338128  0.06868627  0.03616306    -0.22700
F1993       F  0.32763807  0.06944212  0.06695389    -0.24200
F1994       F  0.37160118  0.07754041  0.08171847    -0.18100
F1995       F  0.35327165  0.07915513  0.94088687    -0.20600
F1996       F  0.31706256  0.05168875  0.92924120    -0.21800
F1997       F  0.35223403  0.03525299  0.95721388    -0.19000
F1998       F  0.24584448  0.08890348  0.04933229    -0.19100
F1999       F  0.26399777  0.13048731  0.03738443    -0.22900
F2000       F  0.28508330  0.10419540  0.07068686    -0.24500
C2001       C  0.35019422  0.32458991  0.03727288    -0.11300
C2002       C  0.34665415  0.32372358  0.00802837     0.11300
C2003       C  0.36200087  0.30398072  0.99203288    -0.03100
C2004       C  0.38024304  0.28531254  0.00616362    -0.05900
C2005       C  0.38352498  0.28559620  0.03566936    -0.16600
C2006       C  0.36796416  0.30563596  0.05163031     0.02300
C2007       C  0.32658924  0.34392316  0.99489609     0.12200
C2008       C  0.35898060  0.30256932  0.96019744     0.62900
H2009       H  0.39203730  0.27012819  0.99409184     0.12300
C2010       C  0.36984944  0.30752304  0.08356713     0.55000
H2011       H  0.33845866  0.34025697  0.04883126     0.08100
C2012       C  0.29709966  0.33982380  0.99575443    -0.05700
C2013       C  0.27934372  0.36001538  0.98329585    -0.06500
C2014       C  0.29002856  0.38442552  0.97075871    -0.16100
C2015       C  0.31970460  0.38850432  0.96995049    -0.01700
C2016       C  0.33741823  0.36811287  0.98227702    -0.09200
C2017       C  0.28439770  0.31458903  0.01041098     0.65100
H2018       H  0.25672551  0.35727795  0.98407188     0.10500
C2019       C  0.33289536  0.41377470  0.95573241     0.63500
H2020       H  0.36004039  0.37097670  0.98243380     0.07900
F2021       F  0.35427576  0.32970813  0.09407543    -0.19600
F2022       F  0.39754690  0.31139783  0.09188408    -0.15800
F2023       F  0.35939028  0.28325230  0.09544757    -0.19300
F2024       F  0.36792686  0.32740717  0.94832446    -0.22700
F2025       F  0.33110637  0.29815528  0.95291368    -0.24200
F2026       F  0.37484822  0.28103591  0.94881254    -0.18100
F2027       F  0.32721189  0.43774013  0.97104589    -0.20600
F2028       F  0.32225459  0.41666291  0.92869356    -0.21800
F2029       F  0.36187864  0.41117009  0.95380073    -0.19000
F2030       F  0.25554327  0.31315265  0.00629716    -0.19100
F2031       F  0.28948333  0.31629063  0.03904314    -0.22900
F2032       F  0.29617595  0.29014105  0.00016582    -0.24500
C2033       C  0.51526591  0.14717839  0.89806236    -0.11300
C2034       C  0.48608781  0.14722797  0.90222555     0.11300
C2035       C  0.46821275  0.13353833  0.88277474    -0.03100
C2036       C  0.48054309  0.11784881  0.86105370    -0.05900
C2037       C  0.50996402  0.11529519  0.85851229    -0.16600
C2038       C  0.52775896  0.13095787  0.87677897     0.02300
C2039       C  0.47542162  0.15896463  0.92898594     0.12200
C2040       C  0.43637876  0.13475679  0.88557974     0.62900
H2041       H  0.46721843  0.10624073  0.84662366     0.12300
C2042       C  0.55967329  0.12912668  0.87539563     0.55000
H2043       H  0.52829160  0.15842400  0.91304434     0.08100
C2044       C  0.47684764  0.14318210  0.95420830    -0.05700
C2045       C  0.46802567  0.15580610  0.97929817    -0.06500
C2046       C  0.45850342  0.18365362  0.98004400    -0.16100
C2047       C  0.45622066  0.19916391  0.95472108    -0.01700
C2048       C  0.46492919  0.18647703  0.92941845    -0.09200
C2049       C  0.48845392  0.11341433  0.95482229     0.65100
H2050       H  0.46971507  0.14433272  0.99892338     0.10500
C2051       C  0.44387092  0.22849133  0.95435895     0.63500
H2052       H  0.46406789  0.19806232  0.90982439     0.07900
F2053       F  0.56825082  0.10166636  0.87916593    -0.19600
F2054       F  0.57256018  0.14513790  0.89606617    -0.15800
F2055       F  0.56880112  0.13877275  0.84958246    -0.19300
F2056       F  0.42741077  0.16229822  0.88410084    -0.22700
F2057       F  0.42831941  0.12352672  0.91110949    -0.24200
F2058       F  0.42291868  0.11993698  0.86437803    -0.18100
F2059       F  0.46150476  0.24670261  0.96856785    -0.20600
F2060       F  0.41780252  0.22829551  0.96719252    -0.21800
F2061       F  0.44030617  0.23842892  0.92718144    -0.19000
F2062       F  0.48594911  0.10129831  0.98117372    -0.19100
F2063       F  0.51669329  0.11355553  0.94794278    -0.22900
F2064       F  0.47401546  0.09680949  0.93579481    -0.24500
C2065       C  0.01530744  0.66869180  0.63157522    -0.11300
C2066       C  0.02385388  0.67197404  0.65958328     0.11300
C2067       C  0.04312226  0.69333503  0.66694723    -0.03100
C2068       C  0.05137743  0.71249383  0.64607258    -0.05900
C2069       C  0.04122678  0.71044939  0.61831343    -0.16600
C2070       C  0.02375161  0.68750603  0.61058244     0.02300
C2071       C  0.01135101  0.65321612  0.68087574     0.12200
C2072       C  0.05483517  0.69570725  0.69667000     0.62900
H2073       H  0.06549238  0.72950565  0.65137314     0.12300
C2074       C  0.01448684  0.68228057  0.58032598     0.55000
H2075       H  0.00125893  0.65155714  0.62647434     0.08100
C2076       C  0.98439712  0.65860397  0.69219429    -0.05700
C2077       C  0.97394528  0.64036093  0.71277175    -0.06500
C2078       C  0.98928772  0.61678890  0.72183650    -0.16100
C2079       C  0.01615253  0.61117146  0.71006451    -0.01700
C2080       C  0.02659972  0.62953701  0.68947784    -0.09200
C2081       C  0.96668932  0.68337863  0.68236338     0.65100
H2082       H  0.95335186  0.64415654  0.72170760     0.10500
C2083       C  0.03434256  0.58682584  0.71995387     0.63500
H2084       H  0.04694781  0.62574709  0.68000687     0.07900
F2085       F  0.99517730  0.70242549  0.57200487    -0.19600
F2086       F  0.00190782  0.65632650  0.57715926    -0.15800
F2087       F  0.03757754  0.68297877  0.56275779    -0.19300
F2088       F  0.06986882  0.67172457  0.70332090    -0.22700
F2089       F  0.03310080  0.69890965  0.71564202    -0.24200
F2090       F  0.07275837  0.71835802  0.69955074    -0.18100
F2091       F  0.02173365  0.56169667  0.71291645    -0.20600
F2092       F  0.03801500  0.58834511  0.74880344    -0.21800
F2093       F  0.06074971  0.58719109  0.70776192    -0.19000
F2094       F  0.94172942  0.68553638  0.69712642    -0.19100
F2095       F  0.96001557  0.68034428  0.65415890    -0.22900
F2096       F  0.98146736  0.70802169  0.68610920    -0.24500
C2097       C  0.20011138  0.64883713  0.48652497    -0.11300
C2098       C  0.17507542  0.63994555  0.49916314     0.11300
C2099       C  0.16931573  0.61098659  0.50170829    -0.03100
C2100       C  0.18933389  0.59174386  0.49179121    -0.05900
C2101       C  0.21475610  0.60059405  0.47987750    -0.16600
C2102       C  0.22061786  0.62956798  0.47757817     0.02300
C2103       C  0.15559573  0.66155759  0.51012927     0.12200
C2104       C  0.14241694  0.60045505  0.51520344     0.62900
H2105       H  0.18541298  0.56945798  0.49346861     0.12300
C2106       C  0.24897847  0.64005339  0.46756227     0.55000
H2107       H  0.20379851  0.67113148  0.48455659     0.08100
C2108       C  0.16122149  0.67617934  0.53544541    -0.05700
C2109       C  0.14196285  0.69671036  0.54428445    -0.06500
C2110       C  0.11741640  0.70291555  0.52876107    -0.16100
C2111       C  0.11177528  0.68797365  0.50352009    -0.01700
C2112       C  0.13127730  0.66772067  0.49449361    -0.09200
C2113       C  0.18747322  0.67022148  0.55297666     0.65100
H2114       H  0.14602652  0.70825602  0.56350797     0.10500
C2115       C  0.08620463  0.69428803  0.48538300     0.63500
H2116       H  0.12784514  0.65653858  0.47493674     0.07900
F2117       F  0.27013141  0.62852297  0.48408537    -0.19600
F2118       F  0.25105599  0.66892403  0.46944200    -0.15800
F2119       F  0.25299966  0.63255123  0.43978504    -0.19300
F2120       F  0.11939222  0.60835389  0.49909489    -0.22700
F2121       F  0.13977715  0.61155485  0.54194352    -0.24200
F2122       F  0.14219874  0.57153878  0.51751780    -0.18100
F2123       F  0.08629762  0.72237254  0.47834732    -0.20600
F2124       F  0.06188850  0.68781928  0.49984788    -0.21800
F2125       F  0.08608692  0.67892199  0.46065930    -0.19000
F2126       F  0.18737070  0.68483469  0.57814939    -0.19100
F2127       F  0.21119848  0.67805782  0.53826609    -0.22900
F2128       F  0.18914471  0.64196210  0.55918783    -0.24500
C2129       C  0.70054872  0.84960923  0.53241227    -0.11300
C2130       C  0.67537704  0.84858314  0.54765321     0.11300
C2131       C  0.67078323  0.86743564  0.57011800    -0.03100
C2132       C  0.69065113  0.88871387  0.57483141    -0.05900
C2133       C  0.71518008  0.89057049  0.55863244    -0.16600
C2134       C  0.72079019  0.87037175  0.53764982     0.02300
C2135       C  0.65389948  0.82809459  0.53858457     0.12200
C2136       C  0.64541418  0.86465054  0.58922861     0.62900
H2137       H  0.68734271  0.90398216  0.59137286     0.12300
C2138       C  0.74746674  0.87142835  0.52026343     0.55000
H2139       H  0.70377073  0.83442055  0.51578884     0.08100
C2140       C  0.63476893  0.83431694  0.51645157    -0.05700
C2141       C  0.61647346  0.81318186  0.50707195    -0.06500
C2142       C  0.61784475  0.78599672  0.51816701    -0.16100
C2143       C  0.63684584  0.77983333  0.54045179    -0.01700
C2144       C  0.65450425  0.80125289  0.55052566    -0.09200
C2145       C  0.63464259  0.86273010  0.50194291     0.65100
H2146       H  0.60197210  0.81727746  0.48983865     0.10500
C2147       C  0.63839543  0.75085594  0.55348401     0.63500
H2148       H  0.66966244  0.79699006  0.56713620     0.07900
F2149       F  0.74848181  0.85003521  0.50061792    -0.19600
F2150       F  0.77080183  0.86891020  0.53760546    -0.15800
F2151       F  0.74874158  0.89664362  0.50607545    -0.19300
F2152       F  0.64593558  0.83868646  0.60213558    -0.22700
F2153       F  0.62075213  0.86721978  0.57384080    -0.24200
F2154       F  0.64529294  0.88492024  0.61007578    -0.18100
F2155       F  0.64918179  0.73202619  0.53421737    -0.20600
F2156       F  0.61173255  0.74246170  0.56139921    -0.21800
F2157       F  0.65555788  0.75034708  0.57715945    -0.19000
F2158       F  0.61400593  0.86445440  0.48128921    -0.19100
F2159       F  0.66038369  0.86731206  0.48933807    -0.22900
F2160       F  0.62972667  0.88375495  0.52129336    -0.24500
C2161       C  0.87212595  0.84824064  0.58602079    -0.11300
C2162       C  0.89567457  0.85549852  0.56998555     0.11300
C2163       C  0.89551978  0.88057797  0.55420146    -0.03100
C2164       C  0.87263003  0.89892282  0.55703574    -0.05900
C2165       C  0.84936346  0.89258694  0.57414806    -0.16600
C2166       C  0.84855120  0.86618516  0.58805910     0.02300
C2167       C  0.92074063  0.83695079  0.57026732     0.12200
C2168       C  0.91925135  0.88771375  0.53405045     0.62900
H2169       H  0.87298060  0.91867274  0.54585280     0.12300
C2170       C  0.82295744  0.85644619  0.60433070     0.55000
H2171       H  0.87258436  0.82848992  0.59724521     0.08100
C2172       C  0.94293578  0.84095829  0.58978681    -0.05700
C2173       C  0.96851252  0.82681327  0.58536746    -0.06500
C2174       C  0.97244619  0.80879390  0.56223807    -0.16100
C2175       C  0.94907416  0.80278395  0.54429480    -0.01700
C2176       C  0.92351305  0.81710499  0.54878803    -0.09200
C2177       C  0.93976814  0.86072895  0.61466214     0.65100
H2178       H  0.98608428  0.83056806  0.59950898     0.10500
C2179       C  0.95115431  0.78263911  0.51966443     0.63500
H2180       H  0.90582290  0.81411939  0.53460414     0.07900
F2181       F  0.82511001  0.82849913  0.61189276    -0.19600
F2182       F  0.79900907  0.85944047  0.58788678    -0.15800
F2183       F  0.82012536  0.87198184  0.62868621    -0.19300
F2184       F  0.92018786  0.86794208  0.51281009    -0.22700
F2185       F  0.94484195  0.88793702  0.54807920    -0.24200
F2186       F  0.91548699  0.91374486  0.52169960    -0.18100
F2187       F  0.92599085  0.78058983  0.50491615    -0.20600
F2188       F  0.95797612  0.75614757  0.52940504    -0.21800
F2189       F  0.97148875  0.79182926  0.50113806    -0.19000
F2190       F  0.96373036  0.86118825  0.63142716    -0.19100
F2191       F  0.91747127  0.85218019  0.63112067    -0.22900
F2192       F  0.93467411  0.88770849  0.60530073    -0.24500
C2193       C  0.68285508  0.02403081  0.65719831    -0.11300
C2194       C  0.66306060  0.00480866  0.66731169     0.11300
C2195       C  0.66392620  0.97664817  0.65800173    -0.03100
C2196       C  0.68479064  0.96867673  0.63869243    -0.05900
C2197       C  0.70482281  0.98779219  0.62863770    -0.16600
C2198       C  0.70428698  0.01587769  0.63847886     0.02300
C2199       C  0.64166424  0.01459719  0.68782993     0.12200
C2200       C  0.64299677  0.95507117  0.66856138     0.62900
H2201       H  0.68553602  0.94728494  0.63112404     0.12300
C2202       C  0.72701842  0.03673839  0.63062382     0.55000
H2203       H  0.68158146  0.04549117  0.66447958     0.08100
C2204       C  0.64804244  0.01812287  0.71681983    -0.05700
C2205       C  0.62612030  0.02527611  0.73532950    -0.06500
C2206       C  0.59845426  0.02904647  0.72560205    -0.16100
C2207       C  0.59231324  0.02672748  0.69650618    -0.01700
C2208       C  0.61419898  0.01963265  0.67799751    -0.09200
C2209       C  0.67780481  0.01431496  0.72810378     0.65100
H2210       H  0.63032977  0.02779792  0.75762857     0.10500
C2211       C  0.56287556  0.03227350  0.68512975     0.63500
H2212       H  0.60999814  0.01751710  0.65565907     0.07900
F2213       F  0.72454323  0.06149402  0.64561148    -0.19600
F2214       F  0.72516926  0.04313866  0.60229339    -0.15800
F2215       F  0.75327298  0.02542601  0.63651675    -0.19300
F2216       F  0.61612757  0.96206672  0.65961513    -0.22700
F2217       F  0.64360141  0.95413744  0.69765801    -0.24200
F2218       F  0.64904999  0.92846701  0.65865565    -0.18100
F2219       F  0.56162409  0.02992238  0.65609880    -0.20600
F2220       F  0.55461967  0.05913083  0.69227035    -0.21800
F2221       F  0.54418101  0.01325566  0.69645234    -0.19000
F2222       F  0.67898870  0.01697627  0.75711303    -0.19100
F2223       F  0.69520972  0.03441122  0.71663691    -0.22900
F2224       F  0.68785220  0.98801784  0.72113851    -0.24500
C2225       C  0.16748167  0.02144073  0.89681348    -0.11300
C2226       C  0.16845798  0.01044505  0.86952013     0.11300
C2227       C  0.18928162  0.99066161  0.86214814    -0.03100
C2228       C  0.20820084  0.98177649  0.88299714    -0.05900
C2229       C  0.20678556  0.99186504  0.91077242    -0.16600
C2230       C  0.18619258  0.01225074  0.91792982     0.02300
C2231       C  0.14713618  0.01978040  0.84896225     0.12200
C2232       C  0.19140019  0.97889445  0.83246085     0.62900
H2233       H  0.22435332  0.96664381  0.87767974     0.12300
C2234       C  0.18313411  0.02359070  0.94763800     0.55000
H2235       H  0.15149615  0.03696661  0.90148351     0.08100
C2236       C  0.12019840  0.00746275  0.84768533    -0.05700
C2237       C  0.10183510  0.01573804  0.82603891    -0.06500
C2238       C  0.10936846  0.03625259  0.80617713    -0.16100
C2239       C  0.13620877  0.04942088  0.80837225    -0.01700
C2240       C  0.15460074  0.04077609  0.82995317    -0.09200
C2241       C  0.11089527  0.98583896  0.86920294     0.65100
H2242       H  0.08131010  0.00602967  0.82449707     0.10500
C2243       C  0.14565791  0.07263403  0.78863732     0.63500
H2244       H  0.17534206  0.04998236  0.83198843     0.07900
F2245       F  0.15982442  0.04089461  0.95016445    -0.19600
F2246       F  0.20668005  0.03905728  0.95485256    -0.15800
F2247       F  0.18000454  0.00164978  0.96638905    -0.19300
F2248       F  0.19761159  0.00017846  0.81379656    -0.22700
F2249       F  0.16618209  0.96667978  0.82460903    -0.24200
F2250       F  0.21230795  0.95872712  0.83036877    -0.18100
F2251       F  0.17131303  0.08387775  0.79675405    -0.20600
F2252       F  0.12607752  0.09416046  0.78858414    -0.21800
F2253       F  0.14872280  0.06218274  0.76166572    -0.19000
F2254       F  0.08415893  0.97577615  0.86341310    -0.19100
F2255       F  0.11048672  0.99783102  0.89568384    -0.22900
F2256       F  0.12928306  0.96333119  0.86942451    -0.24500
C2257       C  0.03447676  0.91245152  0.69627550    -0.11300
C2258       C  0.06240070  0.90288308  0.69487924     0.11300
C2259       C  0.08376877  0.91785086  0.70950750    -0.03100
C2260       C  0.07687117  0.94364087  0.72224389    -0.05900
C2261       C  0.04933498  0.95434271  0.72127348    -0.16600
C2262       C  0.02745483  0.93762007  0.70990267     0.02300
C2263       C  0.06879263  0.88118246  0.67327263     0.12200
C2264       C  0.11413755  0.90805880  0.71153080     0.62900
H2265       H  0.09344398  0.95623247  0.73157599     0.12300
C2266       C  0.99682562  0.94673382  0.71139179     0.55000
H2267       H  0.01833473  0.90105747  0.68487084     0.08100
C2268       C  0.06127859  0.85268183  0.67623466    -0.05700
C2269       C  0.06487737  0.83449330  0.65311601    -0.06500
C2270       C  0.07581898  0.84388050  0.62731135    -0.16100
C2271       C  0.08492708  0.87226589  0.62506896    -0.01700
C2272       C  0.08095032  0.89034298  0.64812132    -0.09200
C2273       C  0.05016415  0.84147807  0.70389681     0.65100
H2274       H  0.05844898  0.81282282  0.65485844     0.10500
C2275       C  0.09900540  0.88382917  0.59880908     0.63500
H2276       H  0.08662961  0.91224859  0.64647046     0.07900
F2277       F  0.97880159  0.92481731  0.70514656    -0.19600
F2278       F  0.99163823  0.96811956  0.69242601    -0.15800
F2279       F  0.99075737  0.95594399  0.73830789    -0.19300
F2280       F  0.13123305  0.92676248  0.69751002    -0.22700
F2281       F  0.11828341  0.88165716  0.70031663    -0.24200
F2282       F  0.12222716  0.90717410  0.73955120    -0.18100
F2283       F  0.11033407  0.91015777  0.60340380    -0.20600
F2284       F  0.07952695  0.88621565  0.57716182    -0.21800
F2285       F  0.12076452  0.86632242  0.59069582    -0.19000
F2286       F  0.04562430  0.81285954  0.70282410    -0.19100
F2287       F  0.02492104  0.85428802  0.71046343    -0.22900
F2288       F  0.06953270  0.84676377  0.72509245    -0.24500
C2289       C  0.97931892  0.12324989  0.83919606    -0.11300
C2290       C  0.98914959  0.15081091  0.83691420     0.11300
C2291       C  0.00902711  0.15767243  0.81601121    -0.03100
C2292       C  0.01849246  0.13639081  0.79796177    -0.05900
C2293       C  0.00924324  0.10850602  0.80048067    -0.16600
C2294       C  0.98895703  0.10179192  0.82128631     0.02300
C2295       C  0.98026537  0.17137160  0.85851272     0.12200
C2296       C  0.02088356  0.18712005  0.81335411     0.62900
H2297       H  0.03394244  0.14131827  0.78205945     0.12300
C2298       C  0.97831110  0.07212260  0.82554004     0.55000
H2299       H  0.96444213  0.11859992  0.85573112     0.08100
C2300       C  0.95436444  0.18597911  0.85687192    -0.05700
C2301       C  0.94760588  0.20498511  0.87846056    -0.06500
C2302       C  0.96557768  0.20923700  0.90173202    -0.16100
C2303       C  0.99160105  0.19448517  0.90322465    -0.01700
C2304       C  0.99825971  0.17555609  0.88158574    -0.09200
C2305       C  0.93379298  0.18107892  0.83275292     0.65100
H2306       H  0.92776219  0.21621793  0.87767978     0.10500
C2307       C  0.01293588  0.19940938  0.92666827     0.63500
H2308       H  0.01778399  0.16376936  0.88237280     0.07900
F2309       F  0.96063939  0.07013263  0.84852743    -0.19600
F2310       F  0.00081013  0.05415462  0.83007013    -0.15800
F2311       F  0.96329875  0.06362164  0.80201736    -0.19300
F2312       F  0.03614042  0.19381212  0.83728658    -0.22700
F2313       F  0.99925793  0.20629081  0.81001901    -0.24200
F2314       F  0.03860367  0.18961387  0.79045455    -0.18100
F2315       F  0.03794042  0.18518691  0.92200012    -0.20600
F2316       F  0.00235420  0.19027363  0.95209410    -0.21800
F2317       F  0.01910613  0.22763375  0.92826730    -0.19000
F2318       F  0.91025649  0.19814342  0.83473668    -0.19100
F2319       F  0.92486895  0.15354817  0.83301678    -0.22900
F2320       F  0.94662441  0.18654129  0.80731570    -0.24500
C2321       C  0.91520684  0.02359490  0.67910937    -0.11300
C2322       C  0.89828503  0.01305826  0.70063954     0.11300
C2323       C  0.90883086  0.01145528  0.72841295    -0.03100
C2324       C  0.93693298  0.01938206  0.73346005    -0.05900
C2325       C  0.95456236  0.02877138  0.71160906    -0.16600
C2326       C  0.94320649  0.03163314  0.68389671     0.02300
C2327       C  0.87048133  0.00202792  0.69200177     0.12200
C2328       C  0.89039401  0.00165853  0.75244248     0.62900
H2329       H  0.94549908  0.01773281  0.75457886     0.12300
C2330       C  0.96030504  0.04209611  0.65901059     0.55000
H2331       H  0.90630411  0.02463515  0.65807396     0.08100
C2332       C  0.84968873  0.01986056  0.68007130    -0.05700
C2333       C  0.83035853  0.00851497  0.66077747    -0.06500
C2334       C  0.83088290  0.97999550  0.65402382    -0.16100
C2335       C  0.84892221  0.96158747  0.66893450    -0.01700
C2336       C  0.86879364  0.97301344  0.68763325    -0.09200
C2337       C  0.84814492  0.05106194  0.68578661     0.65100
H2338       H  0.81580155  0.02228559  0.64976820     0.10500
C2339       C  0.84832563  0.93027964  0.66366209     0.63500
H2340       H  0.88500973  0.95965701  0.69660397     0.07900
F2341       F  0.96880359  0.06939411  0.66379603    -0.19600
F2342       F  0.94488926  0.04195697  0.63415973    -0.15800
F2343       F  0.98357690  0.02505191  0.65509462    -0.19300
F2344       F  0.88342124  0.97380713  0.74878455    -0.22700
F2345       F  0.86597518  0.01751288  0.75311151    -0.24200
F2346       F  0.90384467  0.00434507  0.77824856    -0.18100
F2347       F  0.85782413  0.92466574  0.63680308    -0.20600
F2348       F  0.82106298  0.92054350  0.66638122    -0.21800
F2349       F  0.86519760  0.91584109  0.68265041    -0.19000
F2350       F  0.82128064  0.05785177  0.69465585    -0.19100
F2351       F  0.85377941  0.06558548  0.66128154    -0.22900
F2352       F  0.86689531  0.05960953  0.70643896    -0.24500
C2353       C  0.97064783  0.33209550  0.37929216    -0.11300
C2354       C  0.98592802  0.32172344  0.35641058     0.11300
C2355       C  0.99114729  0.29259266  0.35407214    -0.03100
C2356       C  0.98012355  0.27457954  0.37466817    -0.05900
C2357       C  0.96532966  0.28497056  0.39793632    -0.16600
C2358       C  0.96029117  0.31421409  0.40033438     0.02300
C2359       C  0.99792938  0.34219166  0.33633729     0.12200
C2360       C  0.00908095  0.28074611  0.33049066     0.62900
H2361       H  0.98402330  0.25224254  0.37342309     0.12300
C2362       C  0.94384893  0.32657695  0.42472667     0.55000
H2363       H  0.96746762  0.35452453  0.38081129     0.08100
C2364       C  0.98253394  0.35248631  0.31290731    -0.05700
C2365       C  0.99603650  0.37072653  0.29403180    -0.06500
C2366       C  0.02388571  0.37955791  0.29858961    -0.16100
C2367       C  0.03835424  0.37111030  0.32350123    -0.01700
C2368       C  0.02512328  0.35216646  0.34175811    -0.09200
C2369       C  0.95185280  0.34474298  0.30835644     0.65100
H2370       H  0.98500402  0.37807544  0.27540208     0.10500
C2371       C  0.06709506  0.38277909  0.33153063     0.63500
H2372       H  0.03598775  0.34477062  0.36047561     0.07900
F2373       F  0.93810283  0.35475992  0.42071080    -0.19600
F2374       F  0.95925535  0.32398383  0.44937886    -0.15800
F2375       F  0.91844342  0.31276998  0.42750221    -0.19300
F2376       F  0.03599877  0.29158843  0.33226381    -0.22700
F2377       F  0.99751837  0.28771714  0.30465027    -0.24200
F2378       F  0.01111427  0.25183565  0.33191389    -0.18100
F2379       F  0.07458769  0.37581932  0.35888193    -0.20600
F2380       F  0.06666128  0.41169797  0.32965536    -0.21800
F2381       F  0.08753566  0.37217770  0.31386367    -0.19000
F2382       F  0.94098832  0.35648089  0.28392911    -0.19100
F2383       F  0.93608436  0.35437940  0.33074434    -0.22900
F2384       F  0.94898955  0.31600935  0.30647514    -0.24500
C2385       C  0.82445515  0.09427383  0.54752920    -0.11300
C2386       C  0.81735092  0.10031808  0.51945349     0.11300
C2387       C  0.79639824  0.08422030  0.50571907    -0.03100
C2388       C  0.78572518  0.06054347  0.51948435    -0.05900
C2389       C  0.79491065  0.05268412  0.54660824    -0.16600
C2390       C  0.81321145  0.07096422  0.56166099     0.02300
C2391       C  0.83543791  0.12050883  0.50422140     0.12200
C2392       C  0.78512516  0.09049669  0.47640273     0.62900
H2393       H  0.77110492  0.04724439  0.50809071     0.12300
C2394       C  0.82171431  0.06584387  0.59211706     0.55000
H2395       H  0.84025771  0.10708461  0.55783482     0.08100
C2396       C  0.83684367  0.14930744  0.51111999    -0.05700
C2397       C  0.85832806  0.16553842  0.49925100    -0.06500
C2398       C  0.87779617  0.15440193  0.48013968    -0.16100
C2399       C  0.87496408  0.12597142  0.47158598    -0.01700
C2400       C  0.85404312  0.10947638  0.48421988    -0.09200
C2401       C  0.81650346  0.16385137  0.53087207     0.65100
H2402       H  0.86011219  0.18729267  0.50545994     0.10500
C2403       C  0.89347128  0.11293177  0.44905724     0.63500
H2404       H  0.85253568  0.08736691  0.47917286     0.07900
F2405       F  0.83300620  0.08970204  0.60427718    -0.19600
F2406       F  0.84180899  0.04485517  0.59360023    -0.15800
F2407       F  0.79840216  0.05829963  0.60767228    -0.19300
F2408       F  0.79276156  0.06905103  0.45839759    -0.22700
F2409       F  0.79483798  0.11552625  0.46558030    -0.24200
F2410       F  0.75604046  0.09206406  0.47728641    -0.18100
F2411       F  0.88342161  0.08706088  0.44052750    -0.20600
F2412       F  0.92052593  0.10909440  0.45930376    -0.21800
F2413       F  0.89410088  0.13010721  0.42562080    -0.19000
F2414       F  0.80651097  0.18809668  0.51828274    -0.19100
F2415       F  0.83051534  0.17088794  0.55547084    -0.22900
F2416       F  0.79345327  0.14757411  0.53750868    -0.24500
C2417       C  0.83939292  0.35138450  0.56095751    -0.11300
C2418       C  0.83932858  0.34568237  0.53207080     0.11300
C2419       C  0.81854314  0.35771639  0.51441131    -0.03100
C2420       C  0.79894944  0.37620831  0.52635257    -0.05900
C2421       C  0.79914492  0.38268889  0.55532078    -0.16600
C2422       C  0.81961912  0.36972912  0.57306824     0.02300
C2423       C  0.85993562  0.32515313  0.52127830     0.12200
C2424       C  0.81673046  0.35060783  0.48321848     0.62900
H2425       H  0.78296414  0.38558942  0.51297698     0.12300
C2426       C  0.82145757  0.37572150  0.60432843     0.55000
H2427       H  0.85520251  0.34117782  0.57395042     0.08100
C2428       C  0.88731149  0.33288176  0.51261346    -0.05700
C2429       C  0.90492815  0.31211655  0.50113790    -0.06500
C2430       C  0.89601154  0.28423325  0.49882729    -0.16100
C2431       C  0.86938585  0.27636686  0.50924683    -0.01700
C2432       C  0.85160854  0.29709743  0.52019030    -0.09200
C2433       C  0.89798153  0.36264505  0.51610138     0.65100
H2434       H  0.92578275  0.31745738  0.49383264     0.10500
C2435       C  0.86025381  0.24609782  0.50944617     0.63500
H2436       H  0.83085423  0.29166222  0.52777364     0.07900
F2437       F  0.84390231  0.36196436  0.61702682    -0.19600
F2438       F  0.79711029  0.36687949  0.61741368    -0.15800
F2439       F  0.82515610  0.40414579  0.60835226    -0.19300
F2440       F  0.81105470  0.32241098  0.47993318    -0.22700
F2441       F  0.84188851  0.35668156  0.47012501    -0.24200
F2442       F  0.79562989  0.36560219  0.46966404    -0.18100
F2443       F  0.83490940  0.24247751  0.52321121    -0.20600
F2444       F  0.88052321  0.23022751  0.52321296    -0.21800
F2445       F  0.85704764  0.23677629  0.48208246    -0.19000
F2446       F  0.92478535  0.36582565  0.50525356    -0.19100
F2447       F  0.89891726  0.36937509  0.54439495    -0.22900
F2448       F  0.88032132  0.38129686  0.50237836    -0.24500
C2449       C  0.00688162  0.19852278  0.59725067    -0.11300
C2450       C  0.99571036  0.17335669  0.60714530     0.11300
C2451       C  0.97354742  0.16023180  0.59226681    -0.03100
C2452       C  0.96515226  0.17145004  0.56620109    -0.05900
C2453       C  0.97837877  0.19509900  0.55444359    -0.16600
C2454       C  0.99877403  0.20980253  0.57101118     0.02300
C2455       C  0.01018280  0.15902099  0.63080450     0.12200
C2456       C  0.95960860  0.13386218  0.60345699     0.62900
H2457       H  0.94886159  0.16089755  0.55425143     0.12300
C2458       C  0.01293906  0.23658537  0.56119065     0.55000
H2459       H  0.02342780  0.20827607  0.60957783     0.08100
C2460       C  0.03415670  0.14208970  0.62584601    -0.05700
C2461       C  0.04440282  0.12532860  0.64781115    -0.06500
C2462       C  0.03136125  0.12470051  0.67421863    -0.16100
C2463       C  0.00861826  0.14313237  0.67985505    -0.01700
C2464       C  0.99848271  0.16031394  0.65783722    -0.09200
C2465       C  0.04829329  0.14093770  0.59719784     0.65100
H2466       H  0.06217772  0.11153518  0.64416952     0.10500
C2467       C  0.99430445  0.14366997  0.70832759     0.63500
H2468       H  0.98049428  0.17390317  0.66110656     0.07900
F2469       F  0.02942798  0.23112998  0.53791190    -0.19600
F2470       F  0.03026994  0.24790850  0.58178184    -0.15800
F2471       F  0.99272845  0.25650736  0.55459027    -0.19300
F2472       F  0.94739960  0.13946326  0.62920032    -0.22700
F2473       F  0.97937792  0.11275799  0.60676203    -0.24200
F2474       F  0.93873922  0.12417219  0.58548369    -0.18100
F2475       F  0.01336353  0.15206199  0.72874740    -0.20600
F2476       F  0.98432890  0.11726716  0.71486218    -0.21800
F2477       F  0.97175969  0.16213151  0.70872375    -0.19000
F2478       F  0.07029424  0.12182856  0.59672161    -0.19100
F2479       F  0.05906564  0.16697492  0.59061528    -0.22900
F2480       F  0.02905371  0.13312431  0.57670633    -0.24500
C2481       C  0.88086835  0.97022466  0.17462213    -0.11300
C2482       C  0.85218204  0.96955347  0.18101885     0.11300
C2483       C  0.84298575  0.95698424  0.20618647    -0.03100
C2484       C  0.86332567  0.94767981  0.22557858    -0.05900
C2485       C  0.89243244  0.94965259  0.22018382    -0.16600
C2486       C  0.90140380  0.96020265  0.19359541     0.02300
C2487       C  0.83223459  0.98280534  0.16109235     0.12200
C2488       C  0.81183187  0.95339400  0.21244401     0.62900
H2489       H  0.85639612  0.93896246  0.24538010     0.12300
C2490       C  0.93212969  0.96087548  0.18471255     0.55000
H2491       H  0.88700040  0.97928244  0.15467539     0.08100
C2492       C  0.82670041  0.01184603  0.16189016    -0.05700
C2493       C  0.80711148  0.02303340  0.14271718    -0.06500
C2494       C  0.79308921  0.00621397  0.12270202    -0.16100
C2495       C  0.79912557  0.97688338  0.12184152    -0.01700
C2496       C  0.81891554  0.96589514  0.14106958    -0.09200
C2497       C  0.84168080  0.03093058  0.18276857     0.65100
H2498       H  0.80281358  0.04530096  0.14321103     0.10500
C2499       C  0.78488341  0.95685290  0.10131120     0.63500
H2500       H  0.82413846  0.94379369  0.14087881     0.07900
F2501       F  0.94693518  0.97959729  0.20132950    -0.19600
F2502       F  0.93511455  0.96923805  0.15696759    -0.15800
F2503       F  0.94382421  0.93439231  0.18715816    -0.19300
F2504       F  0.79951894  0.93679984  0.19196524    -0.22700
F2505       F  0.79850552  0.97917017  0.21275133    -0.24200
F2506       F  0.80749709  0.94067331  0.23824961    -0.18100
F2507       F  0.79202593  0.96373374  0.07398786    -0.20600
F2508       F  0.75596990  0.95815817  0.10445239    -0.21800
F2509       F  0.79301078  0.92931300  0.10578278    -0.19000
F2510       F  0.83226003  0.05834329  0.18084588    -0.19100
F2511       F  0.87028998  0.03075249  0.17755329    -0.22900
F2512       F  0.83713101  0.02180061  0.20997884    -0.24500
C2513       C  0.79081922  0.94826329  0.42942560    -0.11300
C2514       C  0.81969076  0.94314009  0.42562876     0.11300
C2515       C  0.83826072  0.94491776  0.44899263    -0.03100
C2516       C  0.82698055  0.95002528  0.47576750    -0.05900
C2517       C  0.79809011  0.95516027  0.47990107    -0.16600
C2518       C  0.77965433  0.95484390  0.45619206     0.02300
C2519       C  0.83073236  0.93828147  0.39676736     0.12200
C2520       C  0.87007118  0.94280318  0.44550431     0.62900
H2521       H  0.84099058  0.95065987  0.49383610     0.12300
C2522       C  0.74883427  0.96295395  0.45868052     0.55000
H2523       H  0.77721096  0.94768071  0.41105278     0.08100
C2524       C  0.83681226  0.91113904  0.38643089    -0.05700
C2525       C  0.85447392  0.90853272  0.36276277    -0.06500
C2526       C  0.86512087  0.93226911  0.34893358    -0.16100
C2527       C  0.85378978  0.95893415  0.35585793    -0.01700
C2528       C  0.83762087  0.96163501  0.38038829    -0.09200
C2529       C  0.82476274  0.88530348  0.40048558     0.65100
H2530       H  0.86145544  0.88802905  0.35607879     0.10500
C2531       C  0.85757914  0.98493987  0.33799176     0.63500
H2532       H  0.83107954  0.98228872  0.38731694     0.07900
F2533       F  0.73466639  0.94322679  0.47441220    -0.19600
F2534       F  0.73575899  0.96469585  0.43259469    -0.15800
F2535       F  0.74657430  0.98887228  0.47152785    -0.19300
F2536       F  0.87920794  0.96379918  0.42773739    -0.22700
F2537       F  0.87741638  0.91715989  0.43423233    -0.24200
F2538       F  0.88421563  0.94569517  0.47091818    -0.18100
F2539       F  0.83135314  0.99573135  0.33108796    -0.20600
F2540       F  0.87163149  0.97973357  0.31311937    -0.21800
F2541       F  0.87215408  0.00482487  0.35323443    -0.19000
F2542       F  0.83220241  0.86102780  0.38639340    -0.19100
F2543       F  0.79569296  0.88721362  0.40055190    -0.22900
F2544       F  0.83428227  0.88314896  0.42794879    -0.24500
C2545       C  0.96662750  0.83107711  0.39849683    -0.11300
C2546       C  0.99098851  0.81779887  0.38876554     0.11300
C2547       C  0.99733980  0.81796126  0.35979734    -0.03100
C2548       C  0.98139335  0.83554002  0.34201602    -0.05900
C2549       C  0.95940661  0.85216552  0.35267366    -0.16600
C2550       C  0.95033299  0.84810370  0.38077305     0.02300
C2551       C  0.01030012  0.80646151  0.41034572     0.12200
C2552       C  0.02076530  0.79981975  0.34804608     0.62900
H2553       H  0.98705263  0.83761715  0.32010221     0.12300
C2554       C  0.92371511  0.86151059  0.39220687     0.55000
H2555       H  0.96149480  0.82946318  0.42064578     0.08100
C2556       C  0.02910861  0.82443409  0.42474991    -0.05700
C2557       C  0.04132024  0.81497797  0.44989043    -0.06500
C2558       C  0.03475652  0.78875383  0.46146846    -0.16100
C2559       C  0.01755961  0.76992913  0.44585693    -0.01700
C2560       C  0.00565481  0.77926499  0.42027348    -0.09200
C2561       C  0.03421879  0.85444977  0.41518512     0.65100
H2562       H  0.05420173  0.82915349  0.46208056     0.10500
C2563       C  0.01036313  0.74089568  0.45656605     0.63500
H2564       H  0.99102952  0.76614159  0.40873442     0.07900
F2565       F  0.92823893  0.88949140  0.39814337    -0.19600
F2566       F  0.91503607  0.84853349  0.41673265    -0.15800
F2567       F  0.90222009  0.85898293  0.37263279    -0.19300
F2568       F  0.01512857  0.77201944  0.35385884    -0.22700
F2569       F  0.04631237  0.80685657  0.36016258    -0.24200
F2570       F  0.02309163  0.80276113  0.31915318    -0.18100
F2571       F  0.99771009  0.74259748  0.48262120    -0.20600
F2572       F  0.03463270  0.72512216  0.45871952    -0.21800
F2573       F  0.99211715  0.72697910  0.43855453    -0.19000
F2574       F  0.05519705  0.86727767  0.43089662    -0.19100
F2575       F  0.00981948  0.87001551  0.41808933    -0.22900
F2576       F  0.04236868  0.85496387  0.38733270    -0.24500
C2577       C  0.95741762  0.07374345  0.30954838    -0.11300
C2578       C  0.94546358  0.07906442  0.33595852     0.11300
C2579       C  0.93111475  0.05748076  0.35026319    -0.03100
C2580       C  0.93258533  0.03020980  0.33942938    -0.05900
C2581       C  0.94630712  0.02420802  0.31400690    -0.16600
C2582       C  0.95766371  0.04650481  0.29794948     0.02300
C2583       C  0.95070387  0.10628607  0.35003977     0.12200
C2584       C  0.91466597  0.06329516  0.37704577     0.62900
H2585       H  0.92376236  0.01304091  0.35130451     0.12300
C2586       C  0.97110323  0.04144123  0.26952208     0.55000
H2587       H  0.96760679  0.09087629  0.29872361     0.08100
C2588       C  0.97376223  0.10961032  0.36869733    -0.05700
C2589       C  0.97398236  0.13277445  0.38691090    -0.06500
C2590       C  0.95209197  0.15278326  0.38680335    -0.16100
C2591       C  0.93125637  0.15141221  0.36505670    -0.01700
C2592       C  0.93071483  0.12772244  0.34734198    -0.09200
C2593       C  0.99741604  0.08808464  0.37008753     0.65100
H2594       H  0.99064800  0.13443962  0.40246480     0.10500
C2595       C  0.90946112  0.17434119  0.36035704     0.63500
H2596       H  0.91376779  0.12500526  0.33221694     0.07900
F2597       F  0.99320136  0.02267261  0.27228950    -0.19600
F2598       F  0.98149670  0.06592076  0.25796406    -0.15800
F2599       F  0.95123913  0.03070331  0.25106493    -0.19300
F2600       F  0.89332991  0.08226303  0.37123887    -0.22700
F2601       F  0.93209693  0.07429310  0.39763359    -0.24200
F2602       F  0.90254581  0.03927493  0.38780049    -0.18100
F2603       F  0.89584676  0.17137072  0.33466252    -0.20600
F2604       F  0.92245360  0.20025863  0.36043734    -0.21800
F2605       F  0.88928053  0.17342063  0.38118947    -0.19000
F2606       F  0.01835521  0.09582820  0.38892255    -0.19100
F2607       F  0.00949794  0.08532458  0.34382324    -0.22900
F2608       F  0.98705201  0.06238789  0.37846834    -0.24500
C2609       C  0.02858805  0.84324160  0.21686846    -0.11300
C2610       C  0.01519820  0.83642697  0.19138049     0.11300
C2611       C  0.98878665  0.84874708  0.18469452    -0.03100
C2612       C  0.97633294  0.86708864  0.20422856    -0.05900
C2613       C  0.98987043  0.87434997  0.22955595    -0.16600
C2614       C  0.01674815  0.86267084  0.23583222     0.02300
C2615       C  0.02898663  0.81614418  0.17196601     0.12200
C2616       C  0.97399949  0.84282939  0.15683804     0.62900
H2617       H  0.95592972  0.87629359  0.19966297     0.12300
C2618       C  0.03283937  0.87047842  0.26240150     0.55000
H2619       H  0.04865200  0.83341982  0.22159798     0.08100
C2620       C  0.05094852  0.82411465  0.15355553    -0.05700
C2621       C  0.05984419  0.80498892  0.13279202    -0.06500
C2622       C  0.04750117  0.77845490  0.13017807    -0.16100
C2623       C  0.02722441  0.76968926  0.15005611    -0.01700
C2624       C  0.01844927  0.78874730  0.17084528    -0.09200
C2625       C  0.06453072  0.85279985  0.15557194     0.65100
H2626       H  0.07576798  0.81098189  0.11772878     0.10500
C2627       C  0.01514840  0.74025267  0.14943930     0.63500
H2628       H  0.00235871  0.78281606  0.18575218     0.07900
F2629       F  0.04089425  0.89824291  0.26098115    -0.19600
F2630       F  0.05692251  0.85438578  0.26588637    -0.15800
F2631       F  0.01606598  0.86656789  0.28573203    -0.19300
F2632       F  0.96646757  0.81492739  0.15535077    -0.22700
F2633       F  0.99175296  0.84903038  0.13473869    -0.24200
F2634       F  0.94978587  0.85876703  0.15358591    -0.18100
F2635       F  0.99764098  0.73531374  0.17208534    -0.20600
F2636       F  0.03685717  0.72089875  0.15049016    -0.21800
F2637       F  0.99962524  0.73623800  0.12507442    -0.19000
F2638       F  0.08442149  0.85679256  0.13477660    -0.19100
F2639       F  0.07788833  0.85555196  0.18136065    -0.22900
F2640       F  0.04429413  0.87352846  0.15284998    -0.24500
C2641       C  0.31214226  0.13612575  0.50485521    -0.11300
C2642       C  0.33333651  0.14216478  0.48544939     0.11300
C2643       C  0.33419379  0.12765836  0.45951323    -0.03100
C2644       C  0.31254729  0.10850426  0.45318928    -0.05900
C2645       C  0.29129858  0.10220810  0.47268544    -0.16600
C2646       C  0.29126507  0.11603113  0.49927773     0.02300
C2647       C  0.35499610  0.16293271  0.49393788     0.12200
C2648       C  0.35838586  0.13165216  0.43915742     0.62900
H2649       H  0.31281336  0.09728042  0.43337905     0.12300
C2650       C  0.26991925  0.10950824  0.52214645     0.55000
H2651       H  0.31262543  0.14691694  0.52491555     0.08100
C2652       C  0.34975931  0.19207211  0.49260743    -0.05700
C2653       C  0.36972492  0.21042655  0.50434386    -0.06500
C2654       C  0.39470002  0.20065298  0.51717374    -0.16100
C2655       C  0.40042301  0.17138721  0.51739845    -0.01700
C2656       C  0.38010455  0.15303132  0.50608169    -0.09200
C2657       C  0.32290955  0.20367723  0.47938256     0.65100
H2658       H  0.36562068  0.23274159  0.50409869     0.10500
C2659       C  0.42723657  0.15930380  0.53020589     0.63500
H2660       H  0.38333594  0.13058589  0.50711512     0.07900
F2661       F  0.27107694  0.12872186  0.54395770    -0.19600
F2662       F  0.27537576  0.08329591  0.53336965    -0.15800
F2663       F  0.24289555  0.11012245  0.51123109    -0.19300
F2664       F  0.38329627  0.12309452  0.45174688    -0.22700
F2665       F  0.36061160  0.15953661  0.43171992    -0.24200
F2666       F  0.35472080  0.11614966  0.41478344    -0.18100
F2667       F  0.42989825  0.16776123  0.55794934    -0.20600
F2668       F  0.45026121  0.16834130  0.51504221    -0.21800
F2669       F  0.42735913  0.13029781  0.52977261    -0.19000
F2670       F  0.32289488  0.23267412  0.47860019    -0.19100
F2671       F  0.29981260  0.19519144  0.49471537    -0.22900
F2672       F  0.32016096  0.19406044  0.45206427    -0.24500
C2673       C  0.08492649  0.19137216  0.42490301    -0.11300
C2674       C  0.09851546  0.17644306  0.44656826     0.11300
C2675       C  0.08861476  0.17851027  0.47453238    -0.03100
C2676       C  0.06322714  0.19268664  0.47927476    -0.05900
C2677       C  0.04768315  0.20453560  0.45706373    -0.16600
C2678       C  0.05927179  0.20546023  0.42970142     0.02300
C2679       C  0.12012213  0.15531058  0.43922073     0.12200
C2680       C  0.10384396  0.16430240  0.49895520     0.62900
H2681       H  0.05412287  0.19274988  0.50013432     0.12300
C2682       C  0.04371440  0.21951773  0.40550227     0.55000
H2683       H  0.09340206  0.19001096  0.40383164     0.08100
C2684       C  0.11215854  0.12794049  0.43109518    -0.05700
C2685       C  0.13290476  0.10701912  0.43026414    -0.06500
C2686       C  0.16114969  0.11243555  0.43752126    -0.16100
C2687       C  0.16941204  0.14047741  0.44349030    -0.01700
C2688       C  0.14853515  0.16152240  0.44404778    -0.09200
C2689       C  0.08167592  0.12063207  0.42430104     0.65100
H2690       H  0.12691917  0.08585891  0.42467446     0.10500
C2691       C  0.19959948  0.14817550  0.45064338     0.63500
H2692       H  0.15392955  0.18281364  0.44975111     0.07900
F2693       F  0.01797769  0.20667028  0.40116663    -0.19600
F2694       F  0.05876577  0.21804324  0.38067432    -0.15800
F2695       F  0.03937210  0.24748696  0.41176457    -0.19300
F2696       F  0.13082734  0.17485719  0.50138793    -0.22700
F2697       F  0.10527416  0.13570740  0.49450040    -0.24200
F2698       F  0.09029603  0.16878186  0.52429663    -0.18100
F2699       F  0.20237833  0.17630580  0.45717126    -0.20600
F2700       F  0.21679156  0.14257956  0.42792461    -0.21800
F2701       F  0.20856110  0.13290206  0.47371590    -0.19000
F2702       F  0.07853607  0.09261548  0.41744713    -0.19100
F2703       F  0.07240628  0.13634082  0.40159560    -0.22900
F2704       F  0.06476708  0.12617412  0.44724338    -0.24500
C2705       C  0.16171799  0.06503873  0.58282012    -0.11300
C2706       C  0.17844983  0.05386946  0.60443124     0.11300
C2707       C  0.20497600  0.04204964  0.59800848    -0.03100
C2708       C  0.21328536  0.04095985  0.56968436    -0.05900
C2709       C  0.19606076  0.05122234  0.54765077    -0.16600
C2710       C  0.17007029  0.06462226  0.55457301     0.02300
C2711       C  0.16502243  0.05212011  0.63238945     0.12200
C2712       C  0.22506168  0.02986735  0.61981064     0.62900
H2713       H  0.23329118  0.03116773  0.56478364     0.12300
C2714       C  0.15039684  0.07789620  0.53282345     0.55000
H2715       H  0.14121415  0.07332331  0.58835393     0.08100
C2716       C  0.15878387  0.07641515  0.64812041    -0.05700
C2717       C  0.13854008  0.07463458  0.66943894    -0.06500
C2718       C  0.12459495  0.04932693  0.67547347    -0.16100
C2719       C  0.13410294  0.02422693  0.66237707    -0.01700
C2720       C  0.15388278  0.02625074  0.64056159    -0.09200
C2721       C  0.17290132  0.10420930  0.64178503     0.65100
H2722       H  0.13223892  0.09358963  0.68023215     0.10500
C2723       C  0.12343133  0.99544446  0.67071128     0.63500
H2724       H  0.15948329  0.00782486  0.62847896     0.07900
F2725       F  0.12796061  0.09169627  0.54521237    -0.19600
F2726       F  0.13930983  0.05744476  0.51538264    -0.15800
F2727       F  0.16488862  0.09747821  0.51710174    -0.19300
F2728       F  0.22818694  0.00144890  0.61500448    -0.22700
F2729       F  0.21607691  0.03367487  0.64715998    -0.24200
F2730       F  0.25106941  0.04258388  0.61726006    -0.18100
F2731       F  0.14037496  0.97434776  0.66006699    -0.20600
F2732       F  0.09645072  0.99143436  0.66037478    -0.21800
F2733       F  0.12352350  0.99292464  0.69973264    -0.19000
F2734       F  0.16711202  0.12407158  0.66219428    -0.19100
F2735       F  0.16362977  0.11455777  0.61617324    -0.22900
F2736       F  0.20178545  0.10047744  0.64087285    -0.24500
C2737       C  0.14095974  0.96524016  0.36378089    -0.11300
C2738       C  0.11742656  0.98158741  0.35651777     0.11300
C2739       C  0.11798238  0.01095767  0.36092244    -0.03100
C2740       C  0.14150324  0.02275749  0.37449350    -0.05900
C2741       C  0.16383751  0.00600249  0.38413870    -0.16600
C2742       C  0.16447315  0.97710692  0.37740087     0.02300
C2743       C  0.09132103  0.96733083  0.34708816     0.12200
C2744       C  0.09303051  0.02949411  0.35313623     0.62900
H2745       H  0.14143736  0.04480145  0.37995131     0.12300
C2746       C  0.18994433  0.95906669  0.38448759     0.55000
H2747       H  0.14019668  0.94288960  0.35993858     0.08100
C2748       C  0.08619289  0.96029065  0.31865015    -0.05700
C2749       C  0.05904937  0.95126405  0.31085300    -0.06500
C2750       C  0.03745739  0.94824221  0.33077101    -0.16100
C2751       C  0.04354077  0.95297505  0.35974651    -0.01700
C2752       C  0.07056501  0.96243733  0.36729896    -0.09200
C2753       C  0.10924672  0.96253865  0.29678842     0.65100
H2754       H  0.05428189  0.94705850  0.28893900     0.10500
C2755       C  0.02146396  0.94958776  0.38255109     0.63500
H2756       H  0.07548155  0.96729932  0.38905509     0.07900
F2757       F  0.18804861  0.93280426  0.37226656    -0.19600
F2758       F  0.19237499  0.95554498  0.41328152    -0.15800
F2759       F  0.21402370  0.97183811  0.37450251    -0.19300
F2760       F  0.07058471  0.02360211  0.37053101    -0.22700
F2761       F  0.08504717  0.02486186  0.32549715    -0.24200
F2762       F  0.09940543  0.05764799  0.35592373    -0.18100
F2763       F  0.01306100  0.92191301  0.38393856    -0.20600
F2764       F  0.99842744  0.96647173  0.37669703    -0.21800
F2765       F  0.03168824  0.95702483  0.40886748    -0.19000
F2766       F  0.09972082  0.95509545  0.27022640    -0.19100
F2767       F  0.13123130  0.94482014  0.30398125    -0.22900
F2768       F  0.11917368  0.98969627  0.29551365    -0.24500
C2769       C  0.34713653  0.96780576  0.31573166    -0.11300
C2770       C  0.35568967  0.97525179  0.34297358     0.11300
C2771       C  0.38406608  0.97207801  0.35128786    -0.03100
C2772       C  0.40339897  0.96224757  0.33145081    -0.05900
C2773       C  0.39533388  0.95527792  0.30369843    -0.16600
C2774       C  0.36644716  0.95787054  0.29566698     0.02300
C2775       C  0.33437550  0.98628363  0.36256050     0.12200
C2776       C  0.39382603  0.97884737  0.38108702     0.62900
H2777       H  0.42519225  0.95976067  0.33778887     0.12300
C2778       C  0.35570991  0.95067021  0.26631559     0.55000
H2779       H  0.32504590  0.97008277  0.31034314     0.08100
C2780       C  0.32639826  0.01485540  0.36236477    -0.05700
C2781       C  0.30666868  0.02402521  0.38218596    -0.06500
C2782       C  0.29477653  0.00552440  0.40167695    -0.16100
C2783       C  0.30231404  0.97688585  0.40153198    -0.01700
C2784       C  0.32218814  0.96766556  0.38178079    -0.09200
C2785       C  0.33834683  0.03540800  0.34112271     0.65100
H2786       H  0.30003801  0.04576779  0.38245965     0.10500
C2787       C  0.28861473  0.95617958  0.42135326     0.63500
H2788       H  0.32838303  0.94581882  0.38107394     0.07900
F2789       F  0.36988301  0.96630937  0.24645145    -0.19600
F2790       F  0.32723366  0.95633278  0.26318048    -0.15800
F2791       F  0.35965616  0.92242400  0.26113537    -0.19300
F2792       F  0.38082321  0.96110302  0.39993399    -0.22700
F2793       F  0.38708292  0.00622704  0.38777178    -0.24200
F2794       F  0.42265973  0.97564235  0.38429810    -0.18100
F2795       F  0.25981904  0.95616250  0.41680035    -0.20600
F2796       F  0.29415184  0.96368272  0.44894075    -0.21800
F2797       F  0.29854753  0.92918734  0.41730597    -0.19000
F2798       F  0.32850425  0.06238396  0.34551634    -0.19100
F2799       F  0.33063491  0.02743155  0.31419262    -0.22900
F2800       F  0.36739591  0.03594008  0.34307352    -0.24500
C2801       C  0.18638137  0.91426014  0.52136822    -0.11300
C2802       C  0.19842994  0.89254479  0.50571684     0.11300
C2803       C  0.21890422  0.89864021  0.48517451    -0.03100
C2804       C  0.22444795  0.92692657  0.47888601    -0.05900
C2805       C  0.21057148  0.94880499  0.49306505    -0.16600
C2806       C  0.19268080  0.94235017  0.51605856     0.02300
C2807       C  0.18658982  0.86429641  0.51023061     0.12200
C2808       C  0.23505711  0.87542616  0.47057289     0.62900
H2809       H  0.23897518  0.93208918  0.46223049     0.12300
C2810       C  0.18080904  0.96458787  0.53566469     0.55000
H2811       H  0.17115758  0.90898361  0.53741445     0.08100
C2812       C  0.18712360  0.85167980  0.53715500    -0.05700
C2813       C  0.16530782  0.83340305  0.54443687    -0.06500
C2814       C  0.14342033  0.82697292  0.52542863    -0.16100
C2815       C  0.14600016  0.83562876  0.49689585    -0.01700
C2816       C  0.16715641  0.85491017  0.49006451    -0.09200
C2817       C  0.20900307  0.85845938  0.55948552     0.65100
H2818       H  0.16450979  0.82568360  0.56588113     0.10500
C2819       C  0.12542303  0.82705408  0.47396388     0.63500
H2820       H  0.16669747  0.86498061  0.46961570     0.07900
F2821       F  0.20206337  0.98256510  0.54392796    -0.19600
F2822       F  0.16964232  0.95289831  0.55982653    -0.15800
F2823       F  0.15957001  0.97950844  0.52235842    -0.19300
F2824       F  0.21719523  0.86005472  0.45353435    -0.22700
F2825       F  0.24700575  0.85787289  0.49054829    -0.24200
F2826       F  0.25648319  0.88593549  0.45403065    -0.18100
F2827       F  0.10153302  0.84350217  0.47573144    -0.20600
F2828       F  0.11839395  0.79906082  0.47659473    -0.21800
F2829       F  0.13692294  0.83065648  0.44748176    -0.19000
F2830       F  0.22084045  0.83379636  0.56934790    -0.19100
F2831       F  0.19619310  0.87219424  0.58163839    -0.22900
F2832       F  0.23052944  0.87503833  0.54937366    -0.24500
loop_ 
_geom_bond_atom_site_label_1 
_geom_bond_atom_site_label_2 
_geom_bond_distance 
_geom_bond_site_symmetry_2 
_ccdc_geom_bond_type 
O1          Cr19   1.957       .  S
O1            C9   1.255       .  A
O2          Cr19   2.003       .  S
O2            C3   1.264       .  A
C3            O4   1.257       .  A
C3         C2686   1.490       .  S
O4          Cr20   1.980       .  S
O5          Cr20   2.024       .  S
O5            C6   1.271       .  A
C6            O7   1.255       .  A
C6         C2645   1.486       .  S
O7          Cr21   1.957       .  S
O8          Cr21   2.026       .  S
O8            C9   1.273       .  A
C9         C2709   1.493       .  S
O10         Cr19   1.997   1_565  S
O10          C18   1.260       .  A
O11         Cr19   1.958       .  S
O11          C12   1.257       .  A
C12          O13   1.272       .  A
C12        C2741   1.473       .  S
O13         Cr20   2.033       .  S
O14         Cr20   1.955       .  S
O14          C15   1.255       .  A
C15          O16   1.267       .  A
C15        C2782   1.465       .  S
O16         Cr21   2.014       .  S
O17         Cr21   1.981   1_565  S
O17          C18   1.258       .  A
C18        C2805   1.480       .  S
Cr19         O22   1.754       .  S
Cr20         O22   1.769       .  S
Cr21         O22   1.769       .  S
O23         Cr41   1.993       .  S
O23          C31   1.263       .  A
O24         Cr41   1.970       .  S
O24          C25   1.259       .  A
C25          O26   1.272       .  A
C25        C2526   1.489       .  S
O26         Cr42   2.037       .  S
O27         Cr42   1.964       .  S
O27          C28   1.261       .  A
C28          O29   1.265       .  A
C28        C2485   1.491       .  S
O29         Cr43   2.008       .  S
O30         Cr43   1.993       .  S
O30          C31   1.262       .  A
C31        C2581   1.484   1_565  S
O32         Cr41   1.975       .  S
O32          C40   1.259   1_655  A
O33         Cr41   1.994       .  S
O33          C34   1.261       .  A
C34          O35   1.259       .  A
C34        C2549   1.475       .  S
O35         Cr42   1.979       .  S
O36         Cr42   2.019       .  S
O36          C37   1.269       .  A
C37          O38   1.260       .  A
C37        C2613   1.488       .  S
O38         Cr43   1.982       .  S
O39         Cr43   2.013   1_455  S
O39          C40   1.268       .  A
C40        C2750   1.484       .  S
Cr41         O44   1.761       .  S
Cr42         O44   1.770       .  S
Cr43         O44   1.769       .  S
O45         Cr63   1.988   1_455  S
O45          C53   1.259       .  A
O46         Cr63   1.999       .  S
O46          C47   1.262       .  A
C47          O48   1.262       .  A
C47        C2357   1.479       .  S
O48         Cr64   1.986       .  S
O49         Cr64   2.012       .  S
O49          C50   1.265       .  A
C50          O51   1.262       .  A
C50        C2590   1.496       .  S
O51         Cr65   1.977       .  S
O52         Cr65   1.991   1_455  S
O52          C53   1.262       .  A
C53        C2677   1.471       .  S
O54         Cr63   2.012       .  S
O54          C62   1.265       .  A
O55         Cr63   1.972       .  S
O55          C56   1.260       .  A
C56          O57   1.267       .  A
C56        C2430   1.472       .  S
O57         Cr64   2.010       .  S
O58         Cr64   1.992       .  S
O58          C59   1.263       .  A
C59          O60   1.260       .  A
C59        C2398   1.488       .  S
O60         Cr65   1.999       .  S
O61         Cr65   1.974       .  S
O61          C62   1.263       .  A
C62        C2453   1.497       .  S
Cr63         O66   1.773       .  S
Cr64         O66   1.767       .  S
Cr65         O66   1.764       .  S
O67         Cr85   2.003   1_565  S
O67          C75   1.264       .  A
O68         Cr85   2.002       .  S
O68          C69   1.267       .  A
C69          O70   1.256       .  A
C69        C2238   1.483       .  S
O70         Cr86   1.963       .  S
O71         Cr86   2.008       .  S
O71          C72   1.268       .  A
C72          O73   1.259       .  A
C72        C2718   1.490       .  S
O73         Cr87   1.974       .  S
O74         Cr87   1.993   1_565  S
O74          C75   1.261       .  A
C75        C2261   1.480       .  S
O76         Cr85   2.011   1_655  S
O76          C84   1.268       .  A
O77         Cr85   1.986       .  S
O77          C78   1.261       .  A
C78          O79   1.265       .  A
C78        C2293   1.488       .  S
O79         Cr86   1.998       .  S
O80         Cr86   1.986       .  S
O80          C81   1.259       .  A
C81          O82   1.262       .  A
C81        C2462   1.476       .  S
O82         Cr87   1.989       .  S
O83         Cr87   1.968       .  S
O83          C84   1.257   1_455  A
C84        C2325   1.488       .  S
Cr85         O88   1.768       .  S
Cr86         O88   1.765       .  S
Cr87         O88   1.755       .  S
O89        Cr107   1.998       .  S
O89          C97   1.264       .  A
O90        Cr107   2.012       .  S
O90          C91   1.266       .  A
C91          O92   1.256       .  A
C91        C2133   1.467       .  S
O92        Cr108   1.968       .  S
O93        Cr108   2.022       .  S
O93          C94   1.267       .  A
C94          O95   1.258       .  A
C94        C2165   1.491       .  S
O95        Cr109   1.962       .  S
O96        Cr109   2.003       .  S
O96          C97   1.266       .  A
C97        C2517   1.494       .  S
O98        Cr107   2.018   1_545  S
O98         C106   1.269       .  A
O99        Cr107   1.985       .  S
O99         C100   1.263       .  A
C100        O101   1.269       .  A
C100       C2197   1.486       .  S
O101       Cr108   2.010       .  S
O102       Cr108   1.974       .  S
O102        C103   1.256       .  A
C103        O104   1.265       .  A
C103       C2334   1.466       .  S
O104       Cr109   2.005       .  S
O105       Cr109   1.969   1_545  S
O105        C106   1.257       .  A
C106       C2389   1.490       .  S
Cr107       O110   1.769       .  S
Cr108       O110   1.770       .  S
Cr109       O110   1.759       .  S
O111       Cr129   1.968       .  S
O111        C119   1.263       .  A
O112       Cr129   2.000       .  S
O112        C113   1.260       .  A
C113        O114   1.263       .  A
C113       C2270   1.495       .  S
O114       Cr130   1.996       .  S
O115       Cr130   2.011       .  S
O115        C116   1.265       .  A
C116        O117   1.255       .  A
C116       C2069   1.479       .  S
O117       Cr131   1.963       .  S
O118       Cr131   2.023       .  S
O118        C119   1.270       .  A
C119       C2174   1.491   1_455  S
O120       Cr129   1.992       .  S
O120        C128   1.262       .  A
O121       Cr129   1.971       .  S
O121        C122   1.260       .  A
C122        O123   1.271       .  A
C122       C2814   1.489       .  S
O123       Cr130   2.013       .  S
O124       Cr130   1.967       .  S
O124        C125   1.260       .  A
C125        O126   1.267       .  A
C125       C2110   1.484       .  S
O126       Cr131   2.013       .  S
O127       Cr131   1.985       .  S
O127        C128   1.256       .  A
C128       C2558   1.482       .  S
Cr129       O132   1.764       .  S
Cr130       O132   1.772       .  S
Cr131       O132   1.772       .  S
O133       Cr151   1.998       .  S
O133        C141   1.264       .  A
O134       Cr151   1.967       .  S
O134        C135   1.257       .  A
C135        O136   1.267       .  A
C135       C1909   1.472       .  S
O136       Cr152   2.023       .  S
O137       Cr152   1.976       .  S
O137        C138   1.264       .  A
C138        O139   1.265       .  A
C138       C1877   1.495       .  S
O139       Cr153   2.008       .  S
O140       Cr153   1.987       .  S
O140        C141   1.260       .  A
C141       C1950   1.473       .  S
O142       Cr151   1.965       .  S
O142        C150   1.257       .  A
O143       Cr151   1.993       .  S
O143        C144   1.264       .  A
C144        O145   1.260       .  A
C144       C1973   1.479       .  S
O145       Cr152   1.980       .  S
O146       Cr152   2.009       .  S
O146        C147   1.265       .  A
C147        O148   1.263       .  A
C147       C2005   1.497       .  S
O148       Cr153   1.982       .  S
O149       Cr153   2.018       .  S
O149        C150   1.267       .  A
C150       C2046   1.477   1_554  S
Cr151       O154   1.761       .  S
Cr152       O154   1.769       .  S
Cr153       O154   1.767       .  S
O155       Cr173   2.005   1_554  S
O155        C163   1.267       .  A
O156       Cr173   1.971       .  S
O156        C157   1.260       .  A
C157        O158   1.265       .  A
C157       C1790   1.480       .  S
O158       Cr174   2.006       .  S
O159       Cr174   1.974       .  S
O159        C160   1.259       .  A
C160        O161   1.264       .  A
C160       C1758   1.475       .  S
O161       Cr175   2.001       .  S
O162       Cr175   1.982   1_554  S
O162        C163   1.261       .  A
C163       C1854   1.470       .  S
O164       Cr173   1.973   1_545  S
O164        C172   1.255       .  A
O165       Cr173   1.995       .  S
O165        C166   1.263       .  A
C166        O167   1.258       .  A
C166       C1813   1.470       .  S
O167       Cr174   1.984       .  S
O168       Cr174   1.993       .  S
O168        C169   1.265       .  A
C169        O170   1.259       .  A
C169       C2229   1.476       .  S
O170       Cr175   1.973       .  S
O171       Cr175   2.006   1_545  S
O171        C172   1.265       .  A
C172       C1982   1.492       .  S
Cr173       O176   1.762       .  S
Cr174       O176   1.767       .  S
Cr175       O176   1.771       .  S
O177       Cr195   1.991       .  S
O177        C185   1.261   1_565  A
O178       Cr195   1.995       .  S
O178        C179   1.265       .  A
C179        O180   1.258       .  A
C179       C2773   1.491       .  S
O180       Cr196   1.978       .  S
O181       Cr196   2.015       .  S
O181        C182   1.267       .  A
C182        O183   1.258       .  A
C182       C1845   1.477       .  S
O183       Cr197   1.968       .  S
O184       Cr197   1.997       .  S
O184        C185   1.262   1_565  A
C185       C1918   1.478       .  S
O186       Cr195   2.019       .  S
O186        C194   1.265       .  A
O187       Cr195   1.980       .  S
O187        C188   1.264       .  A
C188        O189   1.266       .  A
C188       C1685   1.488       .  S
O189       Cr196   2.010       .  S
O190       Cr196   1.991       .  S
O190        C191   1.261       .  A
C191        O192   1.260       .  A
C191       C1662   1.479       .  S
O192       Cr197   1.990       .  S
O193       Cr197   1.965       .  S
O193        C194   1.259       .  A
C194       C1717   1.496       .  S
Cr195       O198   1.770       .  S
Cr196       O198   1.773       .  S
Cr197       O198   1.759       .  S
O199       Cr217   1.983       .  S
O199        C207   1.262       .  A
O200       Cr217   1.995       .  S
O200        C201   1.263       .  A
C201        O202   1.259       .  A
C201       C1557   1.486       .  S
O202       Cr218   1.984       .  S
O203       Cr218   2.024       .  S
O203        C204   1.268       .  A
C204        O205   1.253       .  A
C204       C1941   1.475       .  S
O205       Cr219   1.951       .  S
O206       Cr219   2.011       .  S
O206        C207   1.269       .  A
C207       C1598   1.476   1_554  S
O208       Cr217   2.002   1_565  S
O208        C216   1.260       .  A
O209       Cr217   1.965       .  S
O209        C210   1.258       .  A
C210        O211   1.271       .  A
C210       C2494   1.491       .  S
O211       Cr218   2.011       .  S
O212       Cr218   1.986       .  S
O212        C213   1.258       .  A
C213        O214   1.263       .  A
C213       C1726   1.474       .  S
O214       Cr219   1.998       .  S
O215       Cr219   1.971   1_565  S
O215        C216   1.257       .  A
C216       C1621   1.485       .  S
Cr217       O220   1.772       .  S
Cr218       O220   1.773       .  S
Cr219       O220   1.760       .  S
O221       Cr239   2.019       .  S
O221        C229   1.269       .  A
O222       Cr239   1.957       .  S
O222        C223   1.258       .  A
C223        O224   1.266       .  A
C223       C1470   1.481       .  S
O224       Cr240   2.014       .  S
O225       Cr240   1.996       .  S
O225        C226   1.260       .  A
C226        O227   1.260       .  A
C226       C1493   1.476       .  S
O227       Cr241   1.995       .  S
O228       Cr241   1.964       .  S
O228        C229   1.259       .  A
C229       C1781   1.474       .  S
O230       Cr239   1.981   1_554  S
O230        C238   1.258       .  A
O231       Cr239   2.013       .  S
O231        C232   1.266       .  A
C232        O233   1.262       .  A
C232       C1534   1.497   1_556  S
O233       Cr240   1.975       .  S
O234       Cr240   2.020       .  S
O234        C235   1.270       .  A
C235        O236   1.259   1_556  A
C235       C1630   1.472   1_556  S
O236       Cr241   1.960   1_554  S
O237       Cr241   1.997   1_554  S
O237        C238   1.264       .  A
C238       C1653   1.485       .  S
Cr239       O242   1.768       .  S
Cr240       O242   1.770       .  S
Cr241       O242   1.761       .  S
O243       Cr261   1.960   1_565  S
O243        C251   1.259       .  A
O244       Cr261   1.994       .  S
O244        C245   1.263       .  A
C245        O246   1.259       .  A
C245       C1589   1.486       .  S
O246       Cr262   1.985       .  S
O247       Cr262   2.011       .  S
O247        C248   1.267       .  A
C248        O249   1.261       .  A
C248       C2206   1.473       .  S
O249       Cr263   1.974       .  S
O250       Cr263   2.030   1_565  S
O250        C251   1.271       .  A
C251       C1502   1.474       .  S
O252       Cr261   1.986       .  S
O252        C260   1.261       .  A
O253       Cr261   1.962       .  S
O253        C254   1.258       .  A
C254        O255   1.268       .  A
C254       C2037   1.484       .  S
O255       Cr262   2.024       .  S
O256       Cr262   1.970       .  S
O256        C257   1.256       .  A
C257        O258   1.269       .  A
C257       C1438   1.498       .  S
O258       Cr263   2.011       .  S
O259       Cr263   1.990       .  S
O259        C260   1.259       .  A
C260       C1822   1.475       .  S
Cr261       O264   1.760       .  S
Cr262       O264   1.769       .  S
Cr263       O264   1.773       .  S
O265       Cr283   1.988       .  S
O265        C273   1.259       .  A
O266       Cr283   1.969       .  S
O266        C267   1.255       .  A
C267        O268   1.265       .  A
C267       C1301   1.469       .  S
O268       Cr284   2.019       .  S
O269       Cr284   1.981       .  S
O269        C270   1.265       .  A
C270        O271   1.273       .  A
C270       C1269   1.485       .  S
O271       Cr285   2.022       .  S
O272       Cr285   1.980       .  S
O272        C273   1.257       .  A
C273       C1333   1.474       .  S
O274       Cr283   1.967       .  S
O274        C282   1.257       .  A
O275       Cr283   2.003       .  S
O275        C276   1.264       .  A
C276        O277   1.263       .  A
C276       C1365   1.483       .  S
O277       Cr284   1.996       .  S
O278       Cr284   1.995       .  S
O278        C279   1.260       .  A
C279        O280   1.260       .  A
C279       C2366   1.481       .  S
O280       Cr285   1.987       .  S
O281       Cr285   2.026       .  S
O281        C282   1.271       .  A
C282       C1406   1.487   1_455  S
Cr283       O286   1.763       .  S
Cr284       O286   1.776       .  S
Cr285       O286   1.772       .  S
O287       Cr305   1.998       .  S
O287        C295   1.263   1_655  A
O288       Cr305   1.961       .  S
O288        C289   1.257       .  A
C289        O290   1.269       .  A
C289       C1173   1.479       .  S
O290       Cr306   2.027       .  S
O291       Cr306   1.978       .  S
O291        C292   1.262       .  A
C292        O293   1.266       .  A
C292       C2302   1.485       .  S
O293       Cr307   2.012       .  S
O294       Cr307   1.973       .  S
O294        C295   1.257   1_655  A
C295       C1246   1.465       .  S
O296       Cr305   1.969   1_554  S
O296        C304   1.258       .  A
O297       Cr305   1.998       .  S
O297        C298   1.262       .  A
C298        O299   1.260       .  A
C298       C1214   1.469       .  S
O299       Cr306   1.987       .  S
O300       Cr306   2.015       .  S
O300        C301   1.269       .  A
C301        O302   1.258       .  A
C301       C1566   1.477       .  S
O302       Cr307   1.964       .  S
O303       Cr307   2.021   1_554  S
O303        C304   1.268       .  A
C304       C1374   1.489       .  S
Cr305       O308   1.761       .  S
Cr306       O308   1.771       .  S
Cr307       O308   1.770       .  S
O309       Cr327   1.982   1_554  S
O309        C317   1.259       .  A
O310       Cr327   2.012       .  S
O310        C311   1.266       .  A
C311        O312   1.263       .  A
C311       C2014   1.489       .  S
O312       Cr328   1.980       .  S
O313       Cr328   2.012       .  S
O313        C314   1.266       .  A
C314        O315   1.259       .  A
C314       C1237   1.488       .  S
O315       Cr329   1.968       .  S
O316       Cr329   1.986       .  S
O316        C317   1.263   1_556  A
C317       C1310   1.484       .  S
O318       Cr327   2.017       .  S
O318        C326   1.267       .  A
O319       Cr327   1.967       .  S
O319        C320   1.260       .  A
C320        O321   1.262       .  A
C320       C1109   1.474       .  S
O321       Cr328   1.997       .  S
O322       Cr328   1.989       .  S
O322        C323   1.260       .  A
C323        O324   1.260       .  A
C323       C1077   1.475       .  S
O324       Cr329   1.998       .  S
O325       Cr329   1.974       .  S
O325        C326   1.261       .  A
C326       C1141   1.493       .  S
Cr327       O330   1.764       .  S
Cr328       O330   1.765       .  S
Cr329       O330   1.757       .  S
O331       Cr349   2.021       .  S
O331        C339   1.268   1_455  A
O332       Cr349   1.969       .  S
O332        C333   1.260       .  A
C333        O334   1.269       .  A
C333       C2622   1.477       .  S
O334       Cr350   2.021       .  S
O335       Cr350   1.981       .  S
O335        C336   1.256       .  A
C336        O337   1.262       .  A
C336       C1342   1.480       .  S
O337       Cr351   1.993       .  S
O338       Cr351   1.965       .  S
O338        C339   1.261   1_455  A
C339       C1013   1.495       .  S
O340       Cr349   1.997       .  S
O340        C348   1.262   1_554  A
O341       Cr349   2.008       .  S
O341        C342   1.267       .  A
C342        O343   1.256       .  A
C342       C1749   1.483       .  S
O343       Cr350   1.967       .  S
O344       Cr350   2.032       .  S
O344        C345   1.272       .  A
C345        O346   1.257       .  A
C345       C1150   1.476       .  S
O346       Cr351   1.962       .  S
O347       Cr351   1.991       .  S
O347        C348   1.262   1_554  A
C348       C1054   1.483       .  S
Cr349       O352   1.769       .  S
Cr350       O352   1.770       .  S
Cr351       O352   1.758       .  S
O353       Cr371   2.015       .  S
O353        C361   1.270       .  A
O354       Cr371   1.970       .  S
O354        C355   1.257       .  A
C355        O356   1.264       .  A
C355        C958   1.473       .  S
O356       Cr372   2.000       .  S
O357       Cr372   1.996       .  S
O357        C358   1.259       .  A
C358        O359   1.262       .  A
C358        C981   1.492       .  S
O359       Cr373   1.991       .  S
O360       Cr373   1.976       .  S
O360        C361   1.262       .  A
C361       C1182   1.481       .  S
O362       Cr371   1.991   1_455  S
O362        C370   1.260       .  A
O363       Cr371   2.005       .  S
O363        C364   1.265       .  A
C364        O365   1.261       .  A
C364       C2078   1.480       .  S
O365       Cr372   1.971       .  S
O366       Cr372   2.019       .  S
O366        C367   1.268       .  A
C367        O368   1.260       .  A
C367       C1045   1.467       .  S
O368       Cr373   1.968       .  S
O369       Cr373   1.993   1_455  S
O369        C370   1.258       .  A
C370       C1086   1.484       .  S
Cr371       O374   1.770       .  S
Cr372       O374   1.776       .  S
Cr373       O374   1.760       .  S
O375       Cr393   1.971       .  S
O375        C383   1.262   1_554  A
O376       Cr393   1.985       .  S
O376        C377   1.255       .  A
C377        O378   1.260       .  A
C377       C1022   1.488       .  S
O378       Cr394   1.999       .  S
O379       Cr394   2.013       .  S
O379        C380   1.268       .  A
C380        O381   1.260       .  A
C380       C1525   1.478       .  S
O381       Cr395   1.970       .  S
O382       Cr395   2.013       .  S
O382        C383   1.266   1_554  A
C383        C990   1.477       .  S
O384       Cr393   1.979       .  S
O384        C392   1.260       .  A
O385       Cr393   1.971       .  S
O385        C386   1.262       .  A
C386        O387   1.273       .  A
C386       C1397   1.484       .  S
O387       Cr394   2.023       .  S
O388       Cr394   1.975       .  S
O388        C389   1.258       .  A
C389        O390   1.262       .  A
C389        C917   1.468       .  S
O390       Cr395   1.997       .  S
O391       Cr395   2.003       .  S
O391        C392   1.263       .  A
C392       C1205   1.484       .  S
Cr393       O396   1.760       .  S
Cr394       O396   1.771       .  S
Cr395       O396   1.775       .  S
O397       Cr415   2.029       .  S
O397        C405   1.269       .  A
O398       Cr415   1.970       .  S
O398        C399   1.258       .  A
C399        O400   1.265       .  A
C399        C926   1.467       .  S
O400       Cr416   2.008       .  S
O401       Cr416   1.981       .  S
O401        C402   1.259       .  A
C402        O403   1.262       .  A
C402        C789   1.469       .  S
O403       Cr417   1.990       .  S
O404       Cr417   1.965       .  S
O404        C405   1.260       .  A
C405        C853   1.487       .  S
O406       Cr415   1.979       .  S
O406        C414   1.258       .  A
O407       Cr415   2.020       .  S
O407        C408   1.269       .  A
C408        O409   1.257       .  A
C408       C1886   1.474       .  S
O409       Cr416   1.960       .  S
O410       Cr416   2.015       .  S
O410        C411   1.266       .  A
C411        O412   1.258       .  A
C411        C830   1.467       .  S
O412       Cr417   1.968       .  S
O413       Cr417   1.986       .  S
O413        C414   1.260       .  A
C414        C885   1.463       .  S
Cr415       O418   1.774       .  S
Cr416       O418   1.774       .  S
Cr417       O418   1.760       .  S
O419       Cr437   1.967       .  S
O419        C427   1.260       .  A
O420       Cr437   1.994       .  S
O420        C421   1.261       .  A
C421        O422   1.258       .  A
C421        C862   1.470       .  S
O422       Cr438   1.986       .  S
O423       Cr438   2.026       .  S
O423        C424   1.270       .  A
C424        O425   1.259       .  A
C424       C1694   1.498       .  S
O425       Cr439   1.959       .  S
O426       Cr439   2.015       .  S
O426        C427   1.266       .  A
C427        C725   1.489       .  S
O428       Cr437   1.989       .  S
O428        C436   1.259       .  A
O429       Cr437   1.954       .  S
O429        C430   1.255       .  A
C430        O431   1.273       .  A
C430        C693   1.486       .  S
O431       Cr438   2.030       .  S
O432       Cr438   1.970       .  S
O432        C433   1.256       .  A
C433        O434   1.266       .  A
C433       C2142   1.473       .  S
O434       Cr439   2.012       .  S
O435       Cr439   1.983       .  S
O435        C436   1.262       .  A
C436        C757   1.490       .  S
Cr437       O440   1.756       .  S
Cr438       O440   1.768       .  S
Cr439       O440   1.767       .  S
O441       Cr459   2.022       .  S
O441        C449   1.267       .  A
O442       Cr459   1.962       .  S
O442        C443   1.260       .  A
C443        O444   1.270       .  A
C443       C2101   1.473       .  S
O444       Cr460   2.015       .  S
O445       Cr460   1.991       .  S
O445        C446   1.260       .  A
C446        O447   1.258       .  A
C446        C734   1.474       .  S
O447       Cr461   1.982       .  S
O448       Cr461   1.973       .  S
O448        C449   1.260       .  A
C449        C638   1.482       .  S
O450       Cr459   1.986       .  S
O450        C458   1.258       .  A
O451       Cr459   2.002       .  S
O451        C452   1.260       .  A
C452        O453   1.261       .  A
C452       C1278   1.505       .  S
O453       Cr460   1.987       .  S
O454       Cr460   2.012       .  S
O454        C455   1.267       .  A
C455        O456   1.259       .  A
C455        C894   1.466       .  S
O456       Cr461   1.966       .  S
O457       Cr461   1.990       .  S
O457        C458   1.263       .  A
C458        C661   1.481       .  S
Cr459       O462   1.773       .  S
Cr460       O462   1.771       .  S
Cr461       O462   1.764       .  S
O463       Cr481   1.980       .  S
O463        C471   1.264       .  A
O464       Cr481   1.993       .  S
O464        C465   1.260       .  A
C465        O466   1.264       .  A
C465        C629   1.496       .  S
O466       Cr482   1.993       .  S
O467       Cr482   1.988       .  S
O467        C468   1.256       .  A
C468        O469   1.257       .  A
C468       C1118   1.481       .  S
O469       Cr483   1.970       .  S
O470       Cr483   2.012       .  S
O470        C471   1.266       .  A
C471        C574   1.500       .  S
O472       Cr481   1.989       .  S
O472        C480   1.260       .  A
O473       Cr481   1.990       .  S
O473        C474   1.263       .  A
C474        O475   1.262       .  A
C474        C766   1.470       .  S
O475       Cr482   1.994       .  S
O476       Cr482   1.958       .  S
O476        C477   1.261       .  A
C477        O478   1.269       .  A
C477       C1461   1.491       .  S
O478       Cr483   2.019       .  S
O479       Cr483   1.981       .  S
O479        C480   1.257       .  A
C480        C606   1.466       .  S
Cr481       O484   1.755       .  S
Cr482       O484   1.767       .  S
Cr483       O484   1.768       .  S
O485       Cr503   2.024       .  S
O485        C493   1.272       .  A
O486       Cr503   1.975       .  S
O486        C487   1.257       .  A
C487        O488   1.266       .  A
C487       C1429   1.501       .  S
O488       Cr504   2.008       .  S
O489       Cr504   1.999       .  S
O489        C490   1.262       .  A
C490        O491   1.260       .  A
C490        C565   1.475       .  S
O491       Cr505   1.991       .  S
O492       Cr505   1.962       .  S
O492        C493   1.258       .  A
C493        C533   1.481       .  S
O494       Cr503   1.992       .  S
O494        C502   1.259       .  A
O495       Cr503   2.015       .  S
O495        C496   1.268       .  A
C496        O497   1.261       .  A
C496       C2654   1.490       .  S
O497       Cr504   1.971       .  S
O498       Cr504   2.016       .  S
O498        C499   1.269       .  A
C499        O500   1.259       .  A
C499        C670   1.472       .  S
O500       Cr505   1.968       .  S
O501       Cr505   1.982       .  S
O501        C502   1.258       .  A
C502        C821   1.474       .  S
Cr503       O506   1.772       .  S
Cr504       O506   1.772       .  S
Cr505       O506   1.763       .  S
O507       Cr525   1.965       .  S
O507        C515   1.262       .  A
O508       Cr525   1.993       .  S
O508        C509   1.258       .  A
C509        O510   1.256       .  A
C509        C542   1.466       .  S
O510       Cr526   1.985       .  S
O511       Cr526   2.023       .  S
O511        C512   1.268       .  A
C512        O513   1.257       .  A
C512       C2421   1.492       .  S
O513       Cr527   1.956       .  S
O514       Cr527   2.022       .  S
O514        C515   1.270       .  A
C515        C798   1.492       .  S
O516       Cr525   1.993       .  S
O516        C524   1.258       .  A
O517       Cr525   1.958       .  S
O517        C518   1.261       .  A
C518        O519   1.273       .  A
C518        C597   1.484       .  S
O519       Cr526   2.031       .  S
O520       Cr526   1.955       .  S
O520        C521   1.253       .  A
C521        O522   1.269       .  A
C521        C949   1.479       .  S
O522       Cr527   2.016       .  S
O523       Cr527   1.992       .  S
O523        C524   1.261       .  A
C524        C702   1.488       .  S
Cr525       O528   1.758       .  S
Cr526       O528   1.773       .  S
Cr527       O528   1.770       .  S
C529        C530   1.399       .  A
C529        C534   1.402       .  A
C529        H539   1.084       .  S
C530        C535   1.477       .  S
C530        C531   1.411       .  A
C531        C532   1.408       .  A
C531        C536   1.516       .  S
C532        C533   1.407       .  A
C532        H537   1.080       .  S
C533        C534   1.422       .  A
C534        C538   1.522       .  S
C535        C540   1.419       .  A
C535        C544   1.403       .  A
C536        F552   1.383       .  S
C536        F553   1.383       .  S
C536        F554   1.384       .  S
C538        F549   1.385       .  S
C538        F550   1.382       .  S
C538        F551   1.383       .  S
C540        C541   1.403       .  A
C540        C545   1.518       .  S
C541        C542   1.398       .  A
C541        H546   1.085       .  S
C542        C543   1.414       .  A
C543        C544   1.405       .  A
C543        C547   1.517       .  S
C544        H548   1.084       .  S
C545        F558   1.383       .  S
C545        F559   1.383       .  S
C545        F560   1.381       .  S
C547        F555   1.382       .  S
C547        F556   1.383       .  S
C547        F557   1.384       .  S
C561        C562   1.404       .  A
C561        C566   1.410       .  A
C561        H571   1.083       .  S
C562        C567   1.485       .  S
C562        C563   1.416       .  A
C563        C564   1.405       .  A
C563        C568   1.520       .  S
C564        C565   1.403       .  A
C564        H569   1.083       .  S
C565        C566   1.414       .  A
C566        C570   1.515       .  S
C567        C572   1.413       .  A
C567        C576   1.399       .  A
C568        F584   1.383       .  S
C568        F585   1.382       .  S
C568        F586   1.385       .  S
C570        F581   1.384       .  S
C570        F582   1.383       .  S
C570        F583   1.382       .  S
C572        C573   1.405       .  A
C572        C577   1.521       .  S
C573        C574   1.410       .  A
C573        H578   1.082       .  S
C574        C575   1.430       .  A
C575        C576   1.411       .  A
C575        C579   1.521       .  S
C576        H580   1.083       .  S
C577        F590   1.385       .  S
C577        F591   1.383       .  S
C577        F592   1.382       .  S
C579        F587   1.385       .  S
C579        F588   1.384       .  S
C579        F589   1.383       .  S
C593        C594   1.400       .  A
C593        C598   1.409       .  A
C593        H603   1.083       .  S
C594        C599   1.477       .  S
C594        C595   1.415       .  A
C595        C596   1.399       .  A
C595        C600   1.523       .  S
C596        C597   1.405       .  A
C596        H601   1.083       .  S
C597        C598   1.420       .  A
C598        C602   1.513       .  S
C599        C604   1.414       .  A
C599        C608   1.400       .  A
C600        F616   1.382       .  S
C600        F617   1.382       .  S
C600        F618   1.385       .  S
C602        F613   1.382       .  S
C602        F614   1.385       .  S
C602        F615   1.382       .  S
C604        C605   1.405       .  A
C604        C609   1.518       .  S
C605        C606   1.402       .  A
C605        H610   1.083       .  S
C606        C607   1.411       .  A
C607        C608   1.402       .  A
C607        C611   1.510       .  S
C608        H612   1.084       .  S
C609        F622   1.385       .  S
C609        F623   1.382       .  S
C609        F624   1.383       .  S
C611        F619   1.385       .  S
C611        F620   1.383       .  S
C611        F621   1.382       .  S
C625        C626   1.396       .  A
C625        C630   1.400       .  A
C625        H635   1.083       .  S
C626        C631   1.483       .  S
C626        C627   1.411       .  A
C627        C628   1.411       .  A
C627        C632   1.517       .  S
C628        C629   1.412       .  A
C628        H633   1.081       .  S
C629        C630   1.431       .  A
C630        C634   1.526       .  S
C631        C636   1.415       .  A
C631        C640   1.403       .  A
C632        F648   1.382       .  S
C632        F649   1.383       .  S
C632        F650   1.385       .  S
C634        F645   1.383       .  S
C634        F646   1.385       .  S
C634        F647   1.384       .  S
C636        C637   1.402       .  A
C636        C641   1.516       .  S
C637        C638   1.404       .  A
C637        H642   1.085       .  S
C638        C639   1.420       .  A
C639        C640   1.409       .  A
C639        C643   1.518       .  S
C640        H644   1.083       .  S
C641        F654   1.384       .  S
C641        F655   1.383       .  S
C641        F656   1.383       .  S
C643        F651   1.383       .  S
C643        F652   1.383       .  S
C643        F653   1.385       .  S
C657        C658   1.402       .  A
C657        C662   1.410       .  A
C657        H667   1.083       .  S
C658        C663   1.477       .  S
C658        C659   1.413       .  A
C659        C660   1.398       .  A
C659        C664   1.522       .  S
C660        C661   1.405       .  A
C660        H665   1.083       .  S
C661        C662   1.419       .  A
C662        C666   1.516       .  S
C663        C668   1.416       .  A
C663        C672   1.400       .  A
C664        F680   1.382       .  S
C664        F681   1.383       .  S
C664        F682   1.385       .  S
C666        F677   1.384       .  S
C666        F678   1.383       .  S
C666        F679   1.383       .  S
C668        C669   1.403       .  A
C668        C673   1.521       .  S
C669        C670   1.402       .  A
C669        H674   1.082       .  S
C670        C671   1.419       .  A
C671        C672   1.403       .  A
C671        C675   1.517       .  S
C672        H676   1.085       .  S
C673        F686   1.385       .  S
C673        F687   1.382       .  S
C673        F688   1.383       .  S
C675        F683   1.383       .  S
C675        F684   1.382       .  S
C675        F685   1.382       .  S
C689        C690   1.399       .  A
C689        C694   1.402       .  A
C689        H699   1.083       .  S
C690        C695   1.484       .  S
C690        C691   1.419       .  A
C691        C692   1.406       .  A
C691        C696   1.517       .  S
C692        C693   1.404       .  A
C692        H697   1.084       .  S
C693        C694   1.424       .  A
C694        C698   1.520       .  S
C695        C700   1.415       .  A
C695        C704   1.397       .  A
C696        F712   1.384       .  S
C696        F713   1.382       .  S
C696        F714   1.383       .  S
C698        F709   1.385       .  S
C698        F710   1.381       .  S
C698        F711   1.381       .  S
C700        C701   1.411       .  A
C700        C705   1.517       .  S
C701        C702   1.407       .  A
C701        H706   1.083       .  S
C702        C703   1.427       .  A
C703        C704   1.400       .  A
C703        C707   1.522       .  S
C704        H708   1.084       .  S
C705        F718   1.384       .  S
C705        F719   1.381       .  S
C705        F720   1.383       .  S
C707        F715   1.385       .  S
C707        F716   1.382       .  S
C707        F717   1.380       .  S
C721        C722   1.399       .  A
C721        C726   1.409       .  A
C721        H731   1.083       .  S
C722        C727   1.479       .  S
C722        C723   1.414       .  A
C723        C724   1.401       .  A
C723        C728   1.523       .  S
C724        C725   1.408       .  A
C724        H729   1.082       .  S
C725        C726   1.425       .  A
C726        C730   1.519       .  S
C727        C732   1.414       .  A
C727        C736   1.401       .  A
C728        F744   1.382       .  S
C728        F745   1.382       .  S
C728        F746   1.385       .  S
C730        F741   1.383       .  S
C730        F742   1.385       .  S
C730        F743   1.384       .  S
C732        C733   1.404       .  A
C732        C737   1.521       .  S
C733        C734   1.404       .  A
C733        H738   1.084       .  S
C734        C735   1.416       .  A
C735        C736   1.407       .  A
C735        C739   1.516       .  S
C736        H740   1.083       .  S
C737        F750   1.384       .  S
C737        F751   1.383       .  S
C737        F752   1.383       .  S
C739        F747   1.385       .  S
C739        F748   1.382       .  S
C739        F749   1.383       .  S
C753        C754   1.396       .  A
C753        C758   1.397       .  A
C753        H763   1.084       .  S
C754        C759   1.476       .  S
C754        C755   1.409       .  A
C755        C756   1.408       .  A
C755        C760   1.517       .  S
C756        C757   1.413       .  A
C756        H761   1.082       .  S
C757        C758   1.431       .  A
C758        C762   1.528       .  S
C759        C764   1.416       .  A
C759        C768   1.402       .  A
C760        F776   1.381       .  S
C760        F777   1.383       .  S
C760        F778   1.384       .  S
C762        F773   1.384       .  S
C762        F774   1.385       .  S
C762        F775   1.382       .  S
C764        C765   1.397       .  A
C764        C769   1.517       .  S
C765        C766   1.401       .  A
C765        H770   1.085       .  S
C766        C767   1.415       .  A
C767        C768   1.404       .  A
C767        C771   1.513       .  S
C768        H772   1.084       .  S
C769        F782   1.384       .  S
C769        F783   1.383       .  S
C769        F784   1.383       .  S
C771        F779   1.381       .  S
C771        F780   1.382       .  S
C771        F781   1.383       .  S
C785        C786   1.402       .  A
C785        C790   1.407       .  A
C785        H795   1.083       .  S
C786        C791   1.477       .  S
C786        C787   1.415       .  A
C787        C788   1.401       .  A
C787        C792   1.519       .  S
C788        C789   1.402       .  A
C788        H793   1.084       .  S
C789        C790   1.415       .  A
C790        C794   1.516       .  S
C791        C796   1.413       .  A
C791        C800   1.399       .  A
C792        F808   1.382       .  S
C792        F809   1.382       .  S
C792        F810   1.385       .  S
C794        F805   1.384       .  S
C794        F806   1.383       .  S
C794        F807   1.383       .  S
C796        C797   1.400       .  A
C796        C801   1.523       .  S
C797        C798   1.409       .  A
C797        H802   1.082       .  S
C798        C799   1.426       .  A
C799        C800   1.409       .  A
C799        C803   1.519       .  S
C800        H804   1.083       .  S
C801        F814   1.385       .  S
C801        F815   1.382       .  S
C801        F816   1.382       .  S
C803        F811   1.385       .  S
C803        F812   1.383       .  S
C803        F813   1.382       .  S
C817        C818   1.403       .  A
C817        C822   1.409       .  A
C817        H827   1.083       .  S
C818        C823   1.482       .  S
C818        C819   1.415       .  A
C819        C820   1.402       .  A
C819        C824   1.521       .  S
C820        C821   1.402       .  A
C820        H825   1.083       .  S
C821        C822   1.415       .  A
C822        C826   1.516       .  S
C823        C828   1.419       .  A
C823        C832   1.403       .  A
C824        F840   1.382       .  S
C824        F841   1.383       .  S
C824        F842   1.385       .  S
C826        F837   1.383       .  S
C826        F838   1.384       .  S
C826        F839   1.383       .  S
C828        C829   1.403       .  A
C828        C833   1.521       .  S
C829        C830   1.398       .  A
C829        H834   1.084       .  S
C830        C831   1.413       .  A
C831        C832   1.408       .  A
C831        C835   1.516       .  S
C832        H836   1.083       .  S
C833        F846   1.385       .  S
C833        F847   1.382       .  S
C833        F848   1.383       .  S
C835        F843   1.383       .  S
C835        F844   1.383       .  S
C835        F845   1.384       .  S
C849        C850   1.403       .  A
C849        C854   1.413       .  A
C849        H859   1.083       .  S
C850        C855   1.483       .  S
C850        C851   1.415       .  A
C851        C852   1.402       .  A
C851        C856   1.523       .  S
C852        C853   1.405       .  A
C852        H857   1.083       .  S
C853        C854   1.420       .  A
C854        C858   1.516       .  S
C855        C860   1.415       .  A
C855        C864   1.401       .  A
C856        F872   1.383       .  S
C856        F873   1.382       .  S
C856        F874   1.385       .  S
C858        F869   1.385       .  S
C858        F870   1.383       .  S
C858        F871   1.382       .  S
C860        C861   1.407       .  A
C860        C865   1.518       .  S
C861        C862   1.403       .  A
C861        H866   1.084       .  S
C862        C863   1.417       .  A
C863        C864   1.405       .  A
C863        C867   1.517       .  S
C864        H868   1.084       .  S
C865        F878   1.385       .  S
C865        F879   1.383       .  S
C865        F880   1.382       .  S
C867        F875   1.384       .  S
C867        F876   1.382       .  S
C867        F877   1.382       .  S
C881        C882   1.402       .  A
C881        C886   1.405       .  A
C881        H891   1.083       .  S
C882        C887   1.475       .  S
C882        C883   1.414       .  A
C883        C884   1.401       .  A
C883        C888   1.520       .  S
C884        C885   1.401       .  A
C884        H889   1.084       .  S
C885        C886   1.413       .  A
C886        C890   1.516       .  S
C887        C892   1.417       .  A
C887        C896   1.401       .  A
C888        F904   1.382       .  S
C888        F905   1.382       .  S
C888        F906   1.385       .  S
C890        F901   1.383       .  S
C890        F902   1.385       .  S
C890        F903   1.383       .  S
C892        C893   1.402       .  A
C892        C897   1.522       .  S
C893        C894   1.399       .  A
C893        H898   1.084       .  S
C894        C895   1.413       .  A
C895        C896   1.406       .  A
C895        C899   1.512       .  S
C896        H900   1.083       .  S
C897        F910   1.385       .  S
C897        F911   1.382       .  S
C897        F912   1.382       .  S
C899        F907   1.381       .  S
C899        F908   1.383       .  S
C899        F909   1.384       .  S
C913        C914   1.401       .  A
C913        C918   1.403       .  A
C913        H923   1.083       .  S
C914        C919   1.475       .  S
C914        C915   1.414       .  A
C915        C916   1.404       .  A
C915        C920   1.520       .  S
C916        C917   1.402       .  A
C916        H921   1.084       .  S
C917        C918   1.413       .  A
C918        C922   1.514       .  S
C919        C924   1.415       .  A
C919        C928   1.399       .  A
C920        F936   1.382       .  S
C920        F937   1.381       .  S
C920        F938   1.385       .  S
C922        F933   1.385       .  S
C922        F934   1.382       .  S
C922        F935   1.383       .  S
C924        C925   1.405       .  A
C924        C929   1.520       .  S
C925        C926   1.403       .  A
C925        H930   1.084       .  S
C926        C927   1.419       .  A
C927        C928   1.401       .  A
C927        C931   1.520       .  S
C928        H932   1.085       .  S
C929        F942   1.384       .  S
C929        F943   1.382       .  S
C929        F944   1.382       .  S
C931        F939   1.384       .  S
C931        F940   1.380       .  S
C931        F941   1.382       .  S
C945        C946   1.397       .  A
C945        C950   1.402       .  A
C945        H955   1.083       .  S
C946        C951   1.476       .  S
C946        C947   1.413       .  A
C947        C948   1.406       .  A
C947        C952   1.519       .  S
C948        C949   1.405       .  A
C948        H953   1.083       .  S
C949        C950   1.425       .  A
C950        C954   1.523       .  S
C951        C956   1.415       .  A
C951        C960   1.400       .  A
C952        F968   1.382       .  S
C952        F969   1.382       .  S
C952        F970   1.384       .  S
C954        F965   1.378       .  S
C954        F966   1.385       .  S
C954        F967   1.378       .  S
C956        C957   1.405       .  A
C956        C961   1.521       .  S
C957        C958   1.403       .  A
C957        H962   1.080       .  S
C958        C959   1.417       .  A
C959        C960   1.403       .  A
C959        C963   1.519       .  S
C960        H964   1.083       .  S
C961        F974   1.384       .  S
C961        F975   1.382       .  S
C961        F976   1.381       .  S
C963        F971   1.382       .  S
C963        F972   1.383       .  S
C963        F973   1.385       .  S
C977        C978   1.401       .  A
C977        C982   1.413       .  A
C977        H987   1.083       .  S
C978        C983   1.479       .  S
C978        C979   1.414       .  A
C979        C980   1.396       .  A
C979        C984   1.525       .  S
C980        C981   1.407       .  A
C980        H985   1.082       .  S
C981        C982   1.424       .  A
C982        C986   1.515       .  S
C983        C988   1.412       .  A
C983        C992   1.400       .  A
C984       F1000   1.382       .  S
C984       F1001   1.382       .  S
C984       F1002   1.385       .  S
C986        F997   1.383       .  S
C986        F998   1.385       .  S
C986        F999   1.380       .  S
C988        C989   1.402       .  A
C988        C993   1.517       .  S
C989        C990   1.404       .  A
C989        H994   1.083       .  S
C990        C991   1.420       .  A
C991        C992   1.407       .  A
C991        C995   1.519       .  S
C992        H996   1.083       .  S
C993       F1006   1.385       .  S
C993       F1007   1.383       .  S
C993       F1008   1.383       .  S
C995       F1003   1.383       .  S
C995       F1004   1.382       .  S
C995       F1005   1.385       .  S
C1009      C1010   1.400       .  A
C1009      C1014   1.411       .  A
C1009      H1019   1.083       .  S
C1010      C1015   1.479       .  S
C1010      C1011   1.413       .  A
C1011      C1012   1.401       .  A
C1011      C1016   1.523       .  S
C1012      C1013   1.408       .  A
C1012      H1017   1.082       .  S
C1013      C1014   1.426       .  A
C1014      C1018   1.518       .  S
C1015      C1020   1.410       .  A
C1015      C1024   1.396       .  A
C1016      F1032   1.382       .  S
C1016      F1033   1.381       .  S
C1016      F1034   1.383       .  S
C1018      F1029   1.385       .  S
C1018      F1030   1.382       .  S
C1018      F1031   1.384       .  S
C1020      C1021   1.411       .  A
C1020      C1025   1.516       .  S
C1021      C1022   1.409       .  A
C1021      H1026   1.083       .  S
C1022      C1023   1.426       .  A
C1023      C1024   1.400       .  A
C1023      C1027   1.521       .  S
C1024      H1028   1.084       .  S
C1025      F1038   1.384       .  S
C1025      F1039   1.383       .  S
C1025      F1040   1.382       .  S
C1027      F1035   1.385       .  S
C1027      F1036   1.380       .  S
C1027      F1037   1.382       .  S
C1041      C1042   1.403       .  A
C1041      C1046   1.408       .  A
C1041      H1051   1.083       .  S
C1042      C1047   1.481       .  S
C1042      C1043   1.417   1_455  A
C1043      C1044   1.403       .  A
C1043      C1048   1.520       .  S
C1044      C1045   1.399       .  A
C1044      H1049   1.084       .  S
C1045      C1046   1.413   1_655  A
C1046      C1050   1.519       .  S
C1047      C1052   1.414       .  A
C1047      C1056   1.403       .  A
C1048      F1064   1.382       .  S
C1048      F1065   1.383       .  S
C1048      F1066   1.385       .  S
C1050      F1061   1.381       .  S
C1050      F1062   1.384       .  S
C1050      F1063   1.383       .  S
C1052      C1053   1.400       .  A
C1052      C1057   1.523       .  S
C1053      C1054   1.406       .  A
C1053      H1058   1.083       .  S
C1054      C1055   1.418       .  A
C1055      C1056   1.412       .  A
C1055      C1059   1.516       .  S
C1056      H1060   1.083       .  S
C1057      F1070   1.385       .  S
C1057      F1071   1.382       .  S
C1057      F1072   1.383       .  S
C1059      F1067   1.383       .  S
C1059      F1068   1.382       .  S
C1059      F1069   1.384       .  S
C1073      C1074   1.404       .  A
C1073      C1078   1.406       .  A
C1073      H1083   1.084       .  S
C1074      C1079   1.484       .  S
C1074      C1075   1.418       .  A
C1075      C1076   1.406       .  A
C1075      C1080   1.517       .  S
C1076      C1077   1.403       .  A
C1076      H1081   1.085       .  S
C1077      C1078   1.415       .  A
C1078      C1082   1.519       .  S
C1079      C1084   1.413       .  A
C1079      C1088   1.400       .  A
C1080      F1096   1.383       .  S
C1080      F1097   1.382       .  S
C1080      F1098   1.384       .  S
C1082      F1093   1.383       .  S
C1082      F1094   1.385       .  S
C1082      F1095   1.382       .  S
C1084      C1085   1.409       .  A
C1084      C1089   1.516       .  S
C1085      C1086   1.406       .  A
C1085      H1090   1.083       .  S
C1086      C1087   1.422       .  A
C1087      C1088   1.405       .  A
C1087      C1091   1.521       .  S
C1088      H1092   1.084       .  S
C1089      F1102   1.384       .  S
C1089      F1103   1.382       .  S
C1089      F1104   1.383       .  S
C1091      F1099   1.382       .  S
C1091      F1100   1.381       .  S
C1091      F1101   1.385       .  S
C1105      C1106   1.397       .  A
C1105      C1110   1.402       .  A
C1105      H1115   1.083       .  S
C1106      C1111   1.469       .  S
C1106      C1107   1.412       .  A
C1107      C1108   1.399       .  A
C1107      C1112   1.521       .  S
C1108      C1109   1.405       .  A
C1108      H1113   1.083       .  S
C1109      C1110   1.422       .  A
C1110      C1114   1.519       .  S
C1111      C1116   1.410       .  A
C1111      C1120   1.395       .  A
C1112      F1128   1.382       .  S
C1112      F1129   1.383       .  S
C1112      F1130   1.385       .  S
C1114      F1125   1.385       .  S
C1114      F1126   1.381       .  S
C1114      F1127   1.383       .  S
C1116      C1117   1.400       .  A
C1116      C1121   1.520       .  S
C1117      C1118   1.408       .  A
C1117      H1122   1.082       .  S
C1118      C1119   1.426       .  A
C1119      C1120   1.401       .  A
C1119      C1123   1.522       .  S
C1120      H1124   1.083       .  S
C1121      F1134   1.385       .  S
C1121      F1135   1.382       .  S
C1121      F1136   1.383       .  S
C1123      F1131   1.385       .  S
C1123      F1132   1.381       .  S
C1123      F1133   1.383       .  S
C1137      C1138   1.400       .  A
C1137      C1142   1.409       .  A
C1137      H1147   1.083       .  S
C1138      C1143   1.484       .  S
C1138      C1139   1.414       .  A
C1139      C1140   1.404       .  A
C1139      C1144   1.521       .  S
C1140      C1141   1.409       .  A
C1140      H1145   1.082       .  S
C1141      C1142   1.424       .  A
C1142      C1146   1.519       .  S
C1143      C1148   1.418   1_556  A
C1143      C1152   1.401       .  A
C1144      F1160   1.382       .  S
C1144      F1161   1.382       .  S
C1144      F1162   1.385       .  S
C1146      F1157   1.383       .  S
C1146      F1158   1.385       .  S
C1146      F1159   1.384       .  S
C1148      C1149   1.407       .  A
C1148      C1153   1.520       .  S
C1149      C1150   1.401       .  A
C1149      H1154   1.083       .  S
C1150      C1151   1.418   1_554  A
C1151      C1152   1.408       .  A
C1151      C1155   1.518       .  S
C1152      H1156   1.083       .  S
C1153      F1166   1.384       .  S
C1153      F1167   1.382       .  S
C1153      F1168   1.383       .  S
C1155      F1163   1.385       .  S
C1155      F1164   1.383       .  S
C1155      F1165   1.380       .  S
C1169      C1170   1.405       .  A
C1169      C1174   1.412       .  A
C1169      H1179   1.083       .  S
C1170      C1175   1.482       .  S
C1170      C1171   1.415       .  A
C1171      C1172   1.400       .  A
C1171      C1176   1.522       .  S
C1172      C1173   1.404       .  A
C1172      H1177   1.083       .  S
C1173      C1174   1.416       .  A
C1174      C1178   1.516       .  S
C1175      C1180   1.414       .  A
C1175      C1184   1.402       .  A
C1176      F1192   1.382       .  S
C1176      F1193   1.382       .  S
C1176      F1194   1.385       .  S
C1178      F1189   1.384       .  S
C1178      F1190   1.382       .  S
C1178      F1191   1.384       .  S
C1180      C1181   1.405       .  A
C1180      C1185   1.519       .  S
C1181      C1182   1.405       .  A
C1181      H1186   1.083       .  S
C1182      C1183   1.419       .  A
C1183      C1184   1.407       .  A
C1183      C1187   1.518       .  S
C1184      H1188   1.083       .  S
C1185      F1198   1.385   1_655  S
C1185      F1199   1.382       .  S
C1185      F1200   1.383   1_655  S
C1187      F1195   1.385       .  S
C1187      F1196   1.384       .  S
C1187      F1197   1.381       .  S
C1201      C1202   1.404       .  A
C1201      C1206   1.413       .  A
C1201      H1211   1.083       .  S
C1202      C1207   1.480       .  S
C1202      C1203   1.415       .  A
C1203      C1204   1.398       .  A
C1203      C1208   1.525       .  S
C1204      C1205   1.406       .  A
C1204      H1209   1.083       .  S
C1205      C1206   1.418       .  A
C1206      C1210   1.515       .  S
C1207      C1212   1.414       .  A
C1207      C1216   1.401   1_554  A
C1208      F1224   1.383   1_554  S
C1208      F1225   1.381       .  S
C1208      F1226   1.385       .  S
C1210      F1221   1.384       .  S
C1210      F1222   1.383       .  S
C1210      F1223   1.383       .  S
C1212      C1213   1.407       .  A
C1212      C1217   1.517       .  S
C1213      C1214   1.402   1_554  A
C1213      H1218   1.083       .  S
C1214      C1215   1.414       .  A
C1215      C1216   1.404       .  A
C1215      C1219   1.516       .  S
C1216      H1220   1.084       .  S
C1217      F1230   1.384       .  S
C1217      F1231   1.383       .  S
C1217      F1232   1.382       .  S
C1219      F1227   1.385       .  S
C1219      F1228   1.384       .  S
C1219      F1229   1.380       .  S
C1233      C1234   1.398       .  A
C1233      C1238   1.406       .  A
C1233      H1243   1.083       .  S
C1234      C1239   1.475       .  S
C1234      C1235   1.411       .  A
C1235      C1236   1.401       .  A
C1235      C1240   1.521   1_556  S
C1236      C1237   1.409       .  A
C1236      H1241   1.082       .  S
C1237      C1238   1.424       .  A
C1238      C1242   1.518       .  S
C1239      C1244   1.417       .  A
C1239      C1248   1.402       .  A
C1240      F1256   1.383       .  S
C1240      F1257   1.382       .  S
C1240      F1258   1.385       .  S
C1242      F1253   1.385       .  S
C1242      F1254   1.384       .  S
C1242      F1255   1.383       .  S
C1244      C1245   1.400       .  A
C1244      C1249   1.522       .  S
C1245      C1246   1.399       .  A
C1245      H1250   1.084       .  S
C1246      C1247   1.414       .  A
C1247      C1248   1.408       .  A
C1247      C1251   1.516   1_556  S
C1248      H1252   1.083   1_556  S
C1249      F1262   1.385       .  S
C1249      F1263   1.382       .  S
C1249      F1264   1.382       .  S
C1251      F1259   1.383   1_554  S
C1251      F1260   1.383       .  S
C1251      F1261   1.384       .  S
C1265      C1266   1.400       .  A
C1265      C1270   1.405       .  A
C1265      H1275   1.083       .  S
C1266      C1271   1.488       .  S
C1266      C1267   1.416       .  A
C1267      C1268   1.412       .  A
C1267      C1272   1.518       .  S
C1268      C1269   1.406       .  A
C1268      H1273   1.083       .  S
C1269      C1270   1.419       .  A
C1270      C1274   1.515       .  S
C1271      C1276   1.413       .  A
C1271      C1280   1.400       .  A
C1272      F1288   1.382       .  S
C1272      F1289   1.381       .  S
C1272      F1290   1.385       .  S
C1274      F1285   1.385       .  S
C1274      F1286   1.381       .  S
C1274      F1287   1.382       .  S
C1276      C1277   1.407       .  A
C1276      C1281   1.522       .  S
C1277      C1278   1.410       .  A
C1277      H1282   1.077       .  S
C1278      C1279   1.430       .  A
C1279      C1280   1.411       .  A
C1279      C1283   1.522       .  S
C1280      H1284   1.083       .  S
C1281      F1294   1.385       .  S
C1281      F1295   1.382       .  S
C1281      F1296   1.381       .  S
C1283      F1291   1.385       .  S
C1283      F1292   1.384       .  S
C1283      F1293   1.383       .  S
C1297      C1298   1.400       .  A
C1297      C1302   1.403       .  A
C1297      H1307   1.085       .  S
C1298      C1303   1.475       .  S
C1298      C1299   1.415       .  A
C1299      C1300   1.402       .  A
C1299      C1304   1.522       .  S
C1300      C1301   1.400       .  A
C1300      H1305   1.080       .  S
C1301      C1302   1.416       .  A
C1302      C1306   1.516       .  S
C1303      C1308   1.413       .  A
C1303      C1312   1.401       .  A
C1304      F1320   1.382       .  S
C1304      F1321   1.383       .  S
C1304      F1322   1.384       .  S
C1306      F1317   1.383       .  S
C1306      F1318   1.384       .  S
C1306      F1319   1.382       .  S
C1308      C1309   1.397       .  A
C1308      C1313   1.523       .  S
C1309      C1310   1.408       .  A
C1309      H1314   1.083       .  S
C1310      C1311   1.422       .  A
C1311      C1312   1.409       .  A
C1311      C1315   1.519       .  S
C1312      H1316   1.083       .  S
C1313      F1326   1.385       .  S
C1313      F1327   1.381       .  S
C1313      F1328   1.383       .  S
C1315      F1323   1.385       .  S
C1315      F1324   1.383       .  S
C1315      F1325   1.383       .  S
C1329      C1330   1.402       .  A
C1329      C1334   1.409       .  A
C1329      H1339   1.083       .  S
C1330      C1335   1.481       .  S
C1330      C1331   1.417       .  A
C1331      C1332   1.402       .  A
C1331      C1336   1.522       .  S
C1332      C1333   1.402       .  A
C1332      H1337   1.084       .  S
C1333      C1334   1.417       .  A
C1334      C1338   1.517       .  S
C1335      C1340   1.415       .  A
C1335      C1344   1.402       .  A
C1336      F1352   1.382       .  S
C1336      F1353   1.383       .  S
C1336      F1354   1.384       .  S
C1338      F1349   1.383       .  S
C1338      F1350   1.384       .  S
C1338      F1351   1.381       .  S
C1340      C1341   1.401       .  A
C1340      C1345   1.521       .  S
C1341      C1342   1.404       .  A
C1341      H1346   1.083       .  S
C1342      C1343   1.419       .  A
C1343      C1344   1.409       .  A
C1343      C1347   1.517       .  S
C1344      H1348   1.083       .  S
C1345      F1358   1.384       .  S
C1345      F1359   1.383       .  S
C1345      F1360   1.383       .  S
C1347      F1355   1.383       .  S
C1347      F1356   1.383       .  S
C1347      F1357   1.385       .  S
C1361      C1362   1.398       .  A
C1361      C1366   1.401       .  A
C1361      H1371   1.084       .  S
C1362      C1367   1.482   1_455  S
C1362      C1363   1.413   1_455  A
C1363      C1364   1.412   1_655  A
C1363      C1368   1.516       .  S
C1364      C1365   1.407       .  A
C1364      H1369   1.083       .  S
C1365      C1366   1.418       .  A
C1366      C1370   1.514       .  S
C1367      C1372   1.416       .  A
C1367      C1376   1.402       .  A
C1368      F1384   1.383       .  S
C1368      F1385   1.382       .  S
C1368      F1386   1.384       .  S
C1370      F1381   1.382       .  S
C1370      F1382   1.385       .  S
C1370      F1383   1.383       .  S
C1372      C1373   1.403       .  A
C1372      C1377   1.523       .  S
C1373      C1374   1.407       .  A
C1373      H1378   1.083       .  S
C1374      C1375   1.420       .  A
C1375      C1376   1.409       .  A
C1375      C1379   1.516       .  S
C1376      H1380   1.083       .  S
C1377      F1390   1.385       .  S
C1377      F1391   1.382       .  S
C1377      F1392   1.381       .  S
C1379      F1387   1.382       .  S
C1379      F1388   1.383       .  S
C1379      F1389   1.385       .  S
C1393      C1394   1.400       .  A
C1393      C1398   1.406       .  A
C1393      H1403   1.085       .  S
C1394      C1399   1.485       .  S
C1394      C1395   1.417       .  A
C1395      C1396   1.408       .  A
C1395      C1400   1.521       .  S
C1396      C1397   1.405       .  A
C1396      H1401   1.083       .  S
C1397      C1398   1.424       .  A
C1398      C1402   1.519       .  S
C1399      C1404   1.414       .  A
C1399      C1408   1.397       .  A
C1400      F1416   1.382       .  S
C1400      F1417   1.381       .  S
C1400      F1418   1.385       .  S
C1402      F1413   1.384       .  S
C1402      F1414   1.383       .  S
C1402      F1415   1.378       .  S
C1404      C1405   1.412       .  A
C1404      C1409   1.517       .  S
C1405      C1406   1.407       .  A
C1405      H1410   1.083       .  S
C1406      C1407   1.425       .  A
C1407      C1408   1.403       .  A
C1407      C1411   1.522       .  S
C1408      H1412   1.083       .  S
C1409      F1422   1.385       .  S
C1409      F1423   1.383       .  S
C1409      F1424   1.381       .  S
C1411      F1419   1.383   1_655  S
C1411      F1420   1.381   1_655  S
C1411      F1421   1.385       .  S
C1425      C1426   1.397       .  A
C1425      C1430   1.407       .  A
C1425      H1435   1.083       .  S
C1426      C1431   1.482       .  S
C1426      C1427   1.411       .  A
C1427      C1428   1.407       .  A
C1427      C1432   1.520       .  S
C1428      C1429   1.412       .  A
C1428      H1433   1.082       .  S
C1429      C1430   1.430       .  A
C1430      C1434   1.520       .  S
C1431      C1436   1.411       .  A
C1431      C1440   1.398       .  A
C1432      F1448   1.382       .  S
C1432      F1449   1.382       .  S
C1432      F1450   1.384       .  S
C1434      F1445   1.385       .  S
C1434      F1446   1.381       .  S
C1434      F1447   1.383       .  S
C1436      C1437   1.405       .  A
C1436      C1441   1.521       .  S
C1437      C1438   1.411       .  A
C1437      H1442   1.082       .  S
C1438      C1439   1.430       .  A
C1439      C1440   1.408       .  A
C1439      C1443   1.523       .  S
C1440      H1444   1.083       .  S
C1441      F1454   1.385       .  S
C1441      F1455   1.382       .  S
C1441      F1456   1.381       .  S
C1443      F1451   1.385       .  S
C1443      F1452   1.384       .  S
C1443      F1453   1.383       .  S
C1457      C1458   1.399       .  A
C1457      C1462   1.409       .  A
C1457      H1467   1.083       .  S
C1458      C1463   1.476       .  S
C1458      C1459   1.411       .  A
C1459      C1460   1.399       .  A
C1459      C1464   1.523       .  S
C1460      C1461   1.410       .  A
C1460      H1465   1.082       .  S
C1461      C1462   1.426       .  A
C1462      C1466   1.519       .  S
C1463      C1468   1.411       .  A
C1463      C1472   1.401       .  A
C1464      F1480   1.382       .  S
C1464      F1481   1.383       .  S
C1464      F1482   1.384       .  S
C1466      F1477   1.383       .  S
C1466      F1478   1.385       .  S
C1466      F1479   1.382       .  S
C1468      C1469   1.399       .  A
C1468      C1473   1.521       .  S
C1469      C1470   1.407       .  A
C1469      H1474   1.083       .  S
C1470      C1471   1.420       .  A
C1471      C1472   1.407       .  A
C1471      C1475   1.518       .  S
C1472      H1476   1.083       .  S
C1473      F1486   1.385       .  S
C1473      F1487   1.382       .  S
C1473      F1488   1.383       .  S
C1475      F1483   1.383       .  S
C1475      F1484   1.383       .  S
C1475      F1485   1.385       .  S
C1489      C1490   1.400       .  A
C1489      C1494   1.402       .  A
C1489      H1499   1.084       .  S
C1490      C1495   1.483       .  S
C1490      C1491   1.414       .  A
C1491      C1492   1.412       .  A
C1491      C1496   1.517       .  S
C1492      C1493   1.405       .  A
C1492      H1497   1.083       .  S
C1493      C1494   1.417       .  A
C1494      C1498   1.518       .  S
C1495      C1500   1.419       .  A
C1495      C1504   1.406       .  A
C1496      F1512   1.383       .  S
C1496      F1513   1.382       .  S
C1496      F1514   1.384       .  S
C1498      F1509   1.385       .  S
C1498      F1510   1.380       .  S
C1498      F1511   1.383       .  S
C1500      C1501   1.402       .  A
C1500      C1505   1.524       .  S
C1501      C1502   1.401       .  A
C1501      H1506   1.084       .  S
C1502      C1503   1.413       .  A
C1503      C1504   1.412       .  A
C1503      C1507   1.515       .  S
C1504      H1508   1.083       .  S
C1505      F1518   1.385       .  S
C1505      F1519   1.382       .  S
C1505      F1520   1.381       .  S
C1507      F1515   1.383       .  S
C1507      F1516   1.383       .  S
C1507      F1517   1.384       .  S
C1521      C1522   1.402       .  A
C1521      C1526   1.405       .  A
C1521      H1531   1.083       .  S
C1522      C1527   1.485       .  S
C1522      C1523   1.416       .  A
C1523      C1524   1.408       .  A
C1523      C1528   1.519       .  S
C1524      C1525   1.404       .  A
C1524      H1529   1.083       .  S
C1525      C1526   1.418       .  A
C1526      C1530   1.520       .  S
C1527      C1532   1.412       .  A
C1527      C1536   1.401       .  A
C1528      F1544   1.382       .  S
C1528      F1545   1.382       .  S
C1528      F1546   1.384       .  S
C1530      F1541   1.384       .  S
C1530      F1542   1.385   1_554  S
C1530      F1543   1.382   1_554  S
C1532      C1533   1.404       .  A
C1532      C1537   1.521       .  S
C1533      C1534   1.408       .  A
C1533      H1538   1.073       .  S
C1534      C1535   1.425       .  A
C1535      C1536   1.409       .  A
C1535      C1539   1.520       .  S
C1536      H1540   1.083       .  S
C1537      F1550   1.384       .  S
C1537      F1551   1.381       .  S
C1537      F1552   1.382       .  S
C1539      F1547   1.383   1_554  S
C1539      F1548   1.383       .  S
C1539      F1549   1.385       .  S
C1553      C1554   1.402       .  A
C1553      C1558   1.409       .  A
C1553      H1563   1.083       .  S
C1554      C1559   1.481       .  S
C1554      C1555   1.413       .  A
C1555      C1556   1.403       .  A
C1555      C1560   1.521   1_554  S
C1556      C1557   1.408       .  A
C1556      H1561   1.083       .  S
C1557      C1558   1.422       .  A
C1558      C1562   1.519       .  S
C1559      C1564   1.414   1_554  A
C1559      C1568   1.401       .  A
C1560      F1576   1.382       .  S
C1560      F1577   1.382       .  S
C1560      F1578   1.385       .  S
C1562      F1573   1.385       .  S
C1562      F1574   1.384       .  S
C1562      F1575   1.383       .  S
C1564      C1565   1.405       .  A
C1564      C1569   1.519       .  S
C1565      C1566   1.403       .  A
C1565      H1570   1.083       .  S
C1566      C1567   1.420   1_556  A
C1567      C1568   1.406       .  A
C1567      C1571   1.521       .  S
C1568      H1572   1.083       .  S
C1569      F1582   1.384       .  S
C1569      F1583   1.382   1_556  S
C1569      F1584   1.382       .  S
C1571      F1579   1.385       .  S
C1571      F1580   1.381       .  S
C1571      F1581   1.384   1_554  S
C1585      C1586   1.401       .  A
C1585      C1590   1.410       .  A
C1585      H1595   1.083       .  S
C1586      C1591   1.479       .  S
C1586      C1587   1.415       .  A
C1587      C1588   1.401       .  A
C1587      C1592   1.524       .  S
C1588      C1589   1.406       .  A
C1588      H1593   1.083       .  S
C1589      C1590   1.422       .  A
C1590      C1594   1.518       .  S
C1591      C1596   1.413       .  A
C1591      C1600   1.398       .  A
C1592      F1608   1.382       .  S
C1592      F1609   1.381   1_545  S
C1592      F1610   1.385   1_545  S
C1594      F1605   1.383       .  S
C1594      F1606   1.385       .  S
C1594      F1607   1.383       .  S
C1596      C1597   1.410       .  A
C1596      C1601   1.517       .  S
C1597      C1598   1.404       .  A
C1597      H1602   1.082       .  S
C1598      C1599   1.416       .  A
C1599      C1600   1.401       .  A
C1599      C1603   1.513       .  S
C1600      H1604   1.084       .  S
C1601      F1614   1.384       .  S
C1601      F1615   1.383       .  S
C1601      F1616   1.382   1_545  S
C1603      F1611   1.385       .  S
C1603      F1612   1.384   1_556  S
C1603      F1613   1.380   1_556  S
C1617      C1618   1.396       .  A
C1617      C1622   1.403       .  A
C1617      H1627   1.083   1_554  S
C1618      C1623   1.471       .  S
C1618      C1619   1.409       .  A
C1619      C1620   1.402       .  A
C1619      C1624   1.519       .  S
C1620      C1621   1.409       .  A
C1620      H1625   1.081       .  S
C1621      C1622   1.425       .  A
C1622      C1626   1.518   1_554  S
C1623      C1628   1.416       .  A
C1623      C1632   1.398       .  A
C1624      F1640   1.383       .  S
C1624      F1641   1.382       .  S
C1624      F1642   1.385       .  S
C1626      F1637   1.380       .  S
C1626      F1638   1.385       .  S
C1626      F1639   1.384   1_556  S
C1628      C1629   1.400       .  A
C1628      C1633   1.523       .  S
C1629      C1630   1.401       .  A
C1629      H1634   1.083   1_554  S
C1630      C1631   1.415       .  A
C1631      C1632   1.404       .  A
C1631      C1635   1.510       .  S
C1632      H1636   1.083       .  S
C1633      F1646   1.385       .  S
C1633      F1647   1.382   1_554  S
C1633      F1648   1.381       .  S
C1635      F1643   1.382   1_554  S
C1635      F1644   1.381       .  S
C1635      F1645   1.384       .  S
C1649      C1650   1.404       .  A
C1649      C1654   1.411       .  A
C1649      H1659   1.083       .  S
C1650      C1655   1.477       .  S
C1650      C1651   1.417       .  A
C1651      C1652   1.397       .  A
C1651      C1656   1.522       .  S
C1652      C1653   1.405       .  A
C1652      H1657   1.085       .  S
C1653      C1654   1.420       .  A
C1654      C1658   1.518       .  S
C1655      C1660   1.413       .  A
C1655      C1664   1.396       .  A
C1656      F1672   1.384       .  S
C1656      F1673   1.380       .  S
C1656      F1674   1.384       .  S
C1658      F1669   1.383       .  S
C1658      F1670   1.385       .  S
C1658      F1671   1.384       .  S
C1660      C1661   1.411       .  A
C1660      C1665   1.515       .  S
C1661      C1662   1.407       .  A
C1661      H1666   1.083       .  S
C1662      C1663   1.421       .  A
C1663      C1664   1.399       .  A
C1663      C1667   1.518       .  S
C1664      H1668   1.084       .  S
C1665      F1678   1.384       .  S
C1665      F1679   1.383       .  S
C1665      F1680   1.383       .  S
C1667      F1675   1.382       .  S
C1667      F1676   1.382       .  S
C1667      F1677   1.385       .  S
C1681      C1682   1.399       .  A
C1681      C1686   1.406       .  A
C1681      H1691   1.083       .  S
C1682      C1687   1.483       .  S
C1682      C1683   1.414       .  A
C1683      C1684   1.407       .  A
C1683      C1688   1.520       .  S
C1684      C1685   1.408       .  A
C1684      H1689   1.083       .  S
C1685      C1686   1.423       .  A
C1686      C1690   1.519       .  S
C1687      C1692   1.412       .  A
C1687      C1696   1.401       .  A
C1688      F1704   1.382       .  S
C1688      F1705   1.382       .  S
C1688      F1706   1.384       .  S
C1690      F1701   1.385       .  S
C1690      F1702   1.381       .  S
C1690      F1703   1.383       .  S
C1692      C1693   1.404       .  A
C1692      C1697   1.522       .  S
C1693      C1694   1.413       .  A
C1693      H1698   1.082       .  S
C1694      C1695   1.425       .  A
C1695      C1696   1.409       .  A
C1695      C1699   1.519       .  S
C1696      H1700   1.083       .  S
C1697      F1710   1.385       .  S
C1697      F1711   1.382       .  S
C1697      F1712   1.382       .  S
C1699      F1707   1.383       .  S
C1699      F1708   1.383       .  S
C1699      F1709   1.385       .  S
C1713      C1714   1.402       .  A
C1713      C1718   1.412       .  A
C1713      H1723   1.083       .  S
C1714      C1719   1.484       .  S
C1714      C1715   1.414       .  A
C1715      C1716   1.400       .  A
C1715      C1720   1.524       .  S
C1716      C1717   1.408       .  A
C1716      H1721   1.079       .  S
C1717      C1718   1.426       .  A
C1718      C1722   1.519       .  S
C1719      C1724   1.417   1_565  A
C1719      C1728   1.404       .  A
C1720      F1736   1.382       .  S
C1720      F1737   1.383       .  S
C1720      F1738   1.385       .  S
C1722      F1733   1.383   1_565  S
C1722      F1734   1.385       .  S
C1722      F1735   1.384       .  S
C1724      C1725   1.403       .  A
C1724      C1729   1.521       .  S
C1725      C1726   1.400       .  A
C1725      H1730   1.082       .  S
C1726      C1727   1.415   1_545  A
C1727      C1728   1.409       .  A
C1727      C1731   1.516       .  S
C1728      H1732   1.083       .  S
C1729      F1742   1.385       .  S
C1729      F1743   1.382       .  S
C1729      F1744   1.383       .  S
C1731      F1739   1.383       .  S
C1731      F1740   1.381       .  S
C1731      F1741   1.385       .  S
C1745      C1746   1.398       .  A
C1745      C1750   1.403       .  A
C1745      H1755   1.083       .  S
C1746      C1751   1.478       .  S
C1746      C1747   1.414       .  A
C1747      C1748   1.405       .  A
C1747      C1752   1.520   1_554  S
C1748      C1749   1.407       .  A
C1748      H1753   1.083       .  S
C1749      C1750   1.424       .  A
C1750      C1754   1.521       .  S
C1751      C1756   1.416       .  A
C1751      C1760   1.400   1_554  A
C1752      F1768   1.382       .  S
C1752      F1769   1.383       .  S
C1752      F1770   1.385       .  S
C1754      F1765   1.385       .  S
C1754      F1766   1.383       .  S
C1754      F1767   1.384       .  S
C1756      C1757   1.404       .  A
C1756      C1761   1.520       .  S
C1757      C1758   1.404   1_554  A
C1757      H1762   1.083       .  S
C1758      C1759   1.418       .  A
C1759      C1760   1.403       .  A
C1759      C1763   1.518       .  S
C1760      H1764   1.083       .  S
C1761      F1774   1.385       .  S
C1761      F1775   1.382       .  S
C1761      F1776   1.383       .  S
C1763      F1771   1.378       .  S
C1763      F1772   1.384       .  S
C1763      F1773   1.385       .  S
C1777      C1778   1.401       .  A
C1777      C1782   1.402       .  A
C1777      H1787   1.085       .  S
C1778      C1783   1.480       .  S
C1778      C1779   1.415       .  A
C1779      C1780   1.405       .  A
C1779      C1784   1.519   1_556  S
C1780      C1781   1.404       .  A
C1780      H1785   1.083       .  S
C1781      C1782   1.417       .  A
C1782      C1786   1.517       .  S
C1783      C1788   1.416       .  A
C1783      C1792   1.399       .  A
C1784      F1800   1.382   1_554  S
C1784      F1801   1.383       .  S
C1784      F1802   1.385       .  S
C1786      F1797   1.383       .  S
C1786      F1798   1.383       .  S
C1786      F1799   1.384       .  S
C1788      C1789   1.403       .  A
C1788      C1793   1.521       .  S
C1789      C1790   1.403       .  A
C1789      H1794   1.083       .  S
C1790      C1791   1.419       .  A
C1791      C1792   1.407       .  A
C1791      C1795   1.514       .  S
C1792      H1796   1.083       .  S
C1793      F1806   1.384       .  S
C1793      F1807   1.382       .  S
C1793      F1808   1.383       .  S
C1795      F1803   1.381       .  S
C1795      F1804   1.384       .  S
C1795      F1805   1.385       .  S
C1809      C1810   1.399       .  A
C1809      C1814   1.399       .  A
C1809      H1819   1.084       .  S
C1810      C1815   1.476   1_565  S
C1810      C1811   1.413   1_565  A
C1811      C1812   1.411       .  A
C1811      C1816   1.518       .  S
C1812      C1813   1.405   1_545  A
C1812      H1817   1.083       .  S
C1813      C1814   1.415       .  A
C1814      C1818   1.518       .  S
C1815      C1820   1.418       .  A
C1815      C1824   1.404       .  A
C1816      F1832   1.383       .  S
C1816      F1833   1.381       .  S
C1816      F1834   1.384       .  S
C1818      F1829   1.381       .  S
C1818      F1830   1.385       .  S
C1818      F1831   1.383       .  S
C1820      C1821   1.399       .  A
C1820      C1825   1.526       .  S
C1821      C1822   1.402       .  A
C1821      H1826   1.084       .  S
C1822      C1823   1.416       .  A
C1823      C1824   1.410       .  A
C1823      C1827   1.517       .  S
C1824      H1828   1.083   1_545  S
C1825      F1838   1.385       .  S
C1825      F1839   1.382       .  S
C1825      F1840   1.380       .  S
C1827      F1835   1.384   1_545  S
C1827      F1836   1.382       .  S
C1827      F1837   1.384   1_545  S
C1841      C1842   1.399       .  A
C1841      C1846   1.401       .  A
C1841      H1851   1.084       .  S
C1842      C1847   1.479       .  S
C1842      C1843   1.413       .  A
C1843      C1844   1.409       .  A
C1843      C1848   1.518       .  S
C1844      C1845   1.406       .  A
C1844      H1849   1.083       .  S
C1845      C1846   1.420       .  A
C1846      C1850   1.521       .  S
C1847      C1852   1.416       .  A
C1847      C1856   1.403       .  A
C1848      F1864   1.382       .  S
C1848      F1865   1.382       .  S
C1848      F1866   1.384       .  S
C1850      F1861   1.382       .  S
C1850      F1862   1.385       .  S
C1850      F1863   1.382       .  S
C1852      C1853   1.403       .  A
C1852      C1857   1.519   1_565  S
C1853      C1854   1.401       .  A
C1853      H1858   1.084   1_565  S
C1854      C1855   1.415       .  A
C1855      C1856   1.407       .  A
C1855      C1859   1.518       .  S
C1856      H1860   1.083       .  S
C1857      F1870   1.384       .  S
C1857      F1871   1.382       .  S
C1857      F1872   1.382   1_545  S
C1859      F1867   1.384       .  S
C1859      F1868   1.381       .  S
C1859      F1869   1.383       .  S
C1873      C1874   1.398       .  A
C1873      C1878   1.407       .  A
C1873      H1883   1.083       .  S
C1874      C1879   1.482       .  S
C1874      C1875   1.412       .  A
C1875      C1876   1.405       .  A
C1875      C1880   1.520       .  S
C1876      C1877   1.410       .  A
C1876      H1881   1.082       .  S
C1877      C1878   1.429       .  A
C1878      C1882   1.523       .  S
C1879      C1884   1.416       .  A
C1879      C1888   1.403       .  A
C1880      F1896   1.382       .  S
C1880      F1897   1.382       .  S
C1880      F1898   1.385       .  S
C1882      F1893   1.383       .  S
C1882      F1894   1.385       .  S
C1882      F1895   1.383       .  S
C1884      C1885   1.403       .  A
C1884      C1889   1.521       .  S
C1885      C1886   1.402       .  A
C1885      H1890   1.083       .  S
C1886      C1887   1.415       .  A
C1887      C1888   1.408       .  A
C1887      C1891   1.517       .  S
C1888      H1892   1.083       .  S
C1889      F1902   1.385       .  S
C1889      F1903   1.382       .  S
C1889      F1904   1.383       .  S
C1891      F1899   1.382       .  S
C1891      F1900   1.383       .  S
C1891      F1901   1.385       .  S
C1905      C1906   1.406       .  A
C1905      C1910   1.412       .  A
C1905      H1915   1.083       .  S
C1906      C1911   1.484       .  S
C1906      C1907   1.417       .  A
C1907      C1908   1.401       .  A
C1907      C1912   1.522       .  S
C1908      C1909   1.400       .  A
C1908      H1913   1.084       .  S
C1909      C1910   1.413       .  A
C1910      C1914   1.515       .  S
C1911      C1916   1.415       .  A
C1911      C1920   1.403       .  A
C1912      F1928   1.382       .  S
C1912      F1929   1.382       .  S
C1912      F1930   1.385       .  S
C1914      F1925   1.384       .  S
C1914      F1926   1.383       .  S
C1914      F1927   1.383       .  S
C1916      C1917   1.404       .  A
C1916      C1921   1.520       .  S
C1917      C1918   1.404       .  A
C1917      H1922   1.084       .  S
C1918      C1919   1.417       .  A
C1919      C1920   1.409       .  A
C1919      C1923   1.517       .  S
C1920      H1924   1.083       .  S
C1921      F1934   1.385       .  S
C1921      F1935   1.382       .  S
C1921      F1936   1.383       .  S
C1923      F1931   1.384       .  S
C1923      F1932   1.383       .  S
C1923      F1933   1.383       .  S
C1937      C1938   1.399       .  A
C1937      C1942   1.399       .  A
C1937      H1947   1.084       .  S
C1938      C1943   1.481       .  S
C1938      C1939   1.415       .  A
C1939      C1940   1.412       .  A
C1939      C1944   1.516       .  S
C1940      C1941   1.405       .  A
C1940      H1945   1.083       .  S
C1941      C1942   1.419       .  A
C1942      C1946   1.521       .  S
C1943      C1948   1.418       .  A
C1943      C1952   1.404       .  A
C1944      F1960   1.382       .  S
C1944      F1961   1.381       .  S
C1944      F1962   1.384       .  S
C1946      F1957   1.381       .  S
C1946      F1958   1.385       .  S
C1946      F1959   1.379       .  S
C1948      C1949   1.404       .  A
C1948      C1953   1.523       .  S
C1949      C1950   1.402       .  A
C1949      H1954   1.084       .  S
C1950      C1951   1.414       .  A
C1951      C1952   1.408       .  A
C1951      C1955   1.517       .  S
C1952      H1956   1.083       .  S
C1953      F1966   1.385   1_554  S
C1953      F1967   1.382       .  S
C1953      F1968   1.381       .  S
C1955      F1963   1.382       .  S
C1955      F1964   1.383       .  S
C1955      F1965   1.384       .  S
C1969      C1970   1.401       .  A
C1969      C1974   1.409       .  A
C1969      H1979   1.083       .  S
C1970      C1975   1.475       .  S
C1970      C1971   1.415       .  A
C1971      C1972   1.399       .  A
C1971      C1976   1.524       .  S
C1972      C1973   1.405       .  A
C1972      H1977   1.083       .  S
C1973      C1974   1.421       .  A
C1974      C1978   1.520       .  S
C1975      C1980   1.408       .  A
C1975      C1984   1.398   1_554  A
C1976      F1992   1.382       .  S
C1976      F1993   1.380       .  S
C1976      F1994   1.385       .  S
C1978      F1989   1.384       .  S
C1978      F1990   1.384       .  S
C1978      F1991   1.383       .  S
C1980      C1981   1.405       .  A
C1980      C1985   1.519       .  S
C1981      C1982   1.413   1_554  A
C1981      H1986   1.082       .  S
C1982      C1983   1.426       .  A
C1983      C1984   1.404       .  A
C1983      C1987   1.521       .  S
C1984      H1988   1.084       .  S
C1985      F1998   1.384       .  S
C1985      F1999   1.383       .  S
C1985      F2000   1.382       .  S
C1987      F1995   1.385       .  S
C1987      F1996   1.384       .  S
C1987      F1997   1.383       .  S
C2001      C2002   1.399       .  A
C2001      C2006   1.408       .  A
C2001      H2011   1.083       .  S
C2002      C2007   1.488   1_554  S
C2002      C2003   1.414   1_554  A
C2003      C2004   1.408   1_556  A
C2003      C2008   1.519       .  S
C2004      C2005   1.409       .  A
C2004      H2009   1.081   1_554  S
C2005      C2006   1.428       .  A
C2006      C2010   1.522       .  S
C2007      C2012   1.415       .  A
C2007      C2016   1.401       .  A
C2008      F2024   1.382       .  S
C2008      F2025   1.382       .  S
C2008      F2026   1.385       .  S
C2010      F2021   1.385       .  S
C2010      F2022   1.384       .  S
C2010      F2023   1.383       .  S
C2012      C2013   1.406       .  A
C2012      C2017   1.519   1_556  S
C2013      C2014   1.406       .  A
C2013      H2018   1.083       .  S
C2014      C2015   1.424       .  A
C2015      C2016   1.409       .  A
C2015      C2019   1.521       .  S
C2016      H2020   1.083       .  S
C2017      F2030   1.384       .  S
C2017      F2031   1.382       .  S
C2017      F2032   1.382       .  S
C2019      F2027   1.383       .  S
C2019      F2028   1.384       .  S
C2019      F2029   1.385       .  S
C2033      C2034   1.401       .  A
C2033      C2038   1.407       .  A
C2033      H2043   1.083       .  S
C2034      C2039   1.481       .  S
C2034      C2035   1.412       .  A
C2035      C2036   1.405       .  A
C2035      C2040   1.519       .  S
C2036      C2037   1.408       .  A
C2036      H2041   1.083       .  S
C2037      C2038   1.421       .  A
C2038      C2042   1.519       .  S
C2039      C2044   1.416       .  A
C2039      C2048   1.403       .  A
C2040      F2056   1.382       .  S
C2040      F2057   1.382       .  S
C2040      F2058   1.385       .  S
C2042      F2053   1.383       .  S
C2042      F2054   1.385       .  S
C2042      F2055   1.382       .  S
C2044      C2045   1.401       .  A
C2044      C2049   1.523       .  S
C2045      C2046   1.403       .  A
C2045      H2050   1.083       .  S
C2046      C2047   1.416       .  A
C2047      C2048   1.410       .  A
C2047      C2051   1.516       .  S
C2048      H2052   1.083       .  S
C2049      F2062   1.385       .  S
C2049      F2063   1.382       .  S
C2049      F2064   1.382       .  S
C2051      F2059   1.382       .  S
C2051      F2060   1.383       .  S
C2051      F2061   1.384       .  S
C2065      C2066   1.397       .  A
C2065      C2070   1.403       .  A
C2065      H2075   1.083       .  S
C2066      C2071   1.479       .  S
C2066      C2067   1.414       .  A
C2067      C2068   1.407       .  A
C2067      C2072   1.518       .  S
C2068      C2069   1.404       .  A
C2068      H2073   1.083       .  S
C2069      C2070   1.423       .  A
C2070      C2074   1.521       .  S
C2071      C2076   1.414   1_455  A
C2071      C2080   1.400       .  A
C2072      F2088   1.383       .  S
C2072      F2089   1.383       .  S
C2072      F2090   1.384       .  S
C2074      F2085   1.382   1_455  S
C2074      F2086   1.385       .  S
C2074      F2087   1.382       .  S
C2076      C2077   1.403       .  A
C2076      C2081   1.521       .  S
C2077      C2078   1.405       .  A
C2077      H2082   1.083       .  S
C2078      C2079   1.421   1_655  A
C2079      C2080   1.407       .  A
C2079      C2083   1.518       .  S
C2080      H2084   1.083       .  S
C2081      F2094   1.384       .  S
C2081      F2095   1.382       .  S
C2081      F2096   1.382       .  S
C2083      F2091   1.382       .  S
C2083      F2092   1.382       .  S
C2083      F2093   1.385       .  S
C2097      C2098   1.402       .  A
C2097      C2102   1.405       .  A
C2097      H2107   1.083       .  S
C2098      C2103   1.480       .  S
C2098      C2099   1.415       .  A
C2099      C2100   1.403       .  A
C2099      C2104   1.519       .  S
C2100      C2101   1.403       .  A
C2100      H2105   1.084       .  S
C2101      C2102   1.416       .  A
C2102      C2106   1.517       .  S
C2103      C2108   1.415       .  A
C2103      C2112   1.399       .  A
C2104      F2120   1.382       .  S
C2104      F2121   1.383       .  S
C2104      F2122   1.385       .  S
C2106      F2117   1.383       .  S
C2106      F2118   1.385       .  S
C2106      F2119   1.381       .  S
C2108      C2109   1.404       .  A
C2108      C2113   1.521       .  S
C2109      C2110   1.406       .  A
C2109      H2114   1.083       .  S
C2110      C2111   1.420       .  A
C2111      C2112   1.406       .  A
C2111      C2115   1.514       .  S
C2112      H2116   1.083       .  S
C2113      F2126   1.384       .  S
C2113      F2127   1.382       .  S
C2113      F2128   1.383       .  S
C2115      F2123   1.382       .  S
C2115      F2124   1.383       .  S
C2115      F2125   1.385       .  S
C2129      C2130   1.402       .  A
C2129      C2134   1.404       .  A
C2129      H2139   1.083       .  S
C2130      C2135   1.477       .  S
C2130      C2131   1.414       .  A
C2131      C2132   1.405       .  A
C2131      C2136   1.519       .  S
C2132      C2133   1.403       .  A
C2132      H2137   1.084       .  S
C2133      C2134   1.413       .  A
C2134      C2138   1.517       .  S
C2135      C2140   1.416       .  A
C2135      C2144   1.401       .  A
C2136      F2152   1.383       .  S
C2136      F2153   1.381       .  S
C2136      F2154   1.385       .  S
C2138      F2149   1.384       .  S
C2138      F2150   1.381       .  S
C2138      F2151   1.381       .  S
C2140      C2141   1.404       .  A
C2140      C2145   1.521       .  S
C2141      C2142   1.402       .  A
C2141      H2146   1.084       .  S
C2142      C2143   1.417       .  A
C2143      C2144   1.406       .  A
C2143      C2147   1.517       .  S
C2144      H2148   1.083       .  S
C2145      F2158   1.384       .  S
C2145      F2159   1.382       .  S
C2145      F2160   1.381       .  S
C2147      F2155   1.382       .  S
C2147      F2156   1.383       .  S
C2147      F2157   1.385       .  S
C2161      C2162   1.401       .  A
C2161      C2166   1.411       .  A
C2161      H2171   1.083       .  S
C2162      C2167   1.481       .  S
C2162      C2163   1.412       .  A
C2163      C2164   1.401       .  A
C2163      C2168   1.522       .  S
C2164      C2165   1.409       .  A
C2164      H2169   1.082       .  S
C2165      C2166   1.424       .  A
C2166      C2170   1.518       .  S
C2167      C2172   1.413       .  A
C2167      C2176   1.399       .  A
C2168      F2184   1.382       .  S
C2168      F2185   1.382       .  S
C2168      F2186   1.385       .  S
C2170      F2181   1.385       .  S
C2170      F2182   1.382       .  S
C2170      F2183   1.381       .  S
C2172      C2173   1.405       .  A
C2172      C2177   1.520       .  S
C2173      C2174   1.408       .  A
C2173      H2178   1.083       .  S
C2174      C2175   1.425       .  A
C2175      C2176   1.409       .  A
C2175      C2179   1.518       .  S
C2176      H2180   1.083       .  S
C2177      F2190   1.385       .  S
C2177      F2191   1.383       .  S
C2177      F2192   1.382       .  S
C2179      F2187   1.385       .  S
C2179      F2188   1.383       .  S
C2179      F2189   1.383       .  S
C2193      C2194   1.402       .  A
C2193      C2198   1.410       .  A
C2193      H2203   1.083       .  S
C2194      C2199   1.487       .  S
C2194      C2195   1.416   1_545  A
C2195      C2196   1.406       .  A
C2195      C2200   1.521       .  S
C2196      C2197   1.406       .  A
C2196      H2201   1.083       .  S
C2197      C2198   1.420   1_565  A
C2198      C2202   1.519       .  S
C2199      C2204   1.418       .  A
C2199      C2208   1.402       .  A
C2200      F2216   1.382       .  S
C2200      F2217   1.383       .  S
C2200      F2218   1.384       .  S
C2202      F2213   1.385       .  S
C2202      F2214   1.382       .  S
C2202      F2215   1.384       .  S
C2204      C2205   1.408       .  A
C2204      C2209   1.518       .  S
C2205      C2206   1.401       .  A
C2205      H2210   1.083       .  S
C2206      C2207   1.415       .  A
C2207      C2208   1.406       .  A
C2207      C2211   1.518       .  S
C2208      H2212   1.083       .  S
C2209      F2222   1.385       .  S
C2209      F2223   1.382       .  S
C2209      F2224   1.382   1_545  S
C2211      F2219   1.384       .  S
C2211      F2220   1.382       .  S
C2211      F2221   1.383       .  S
C2225      C2226   1.400       .  A
C2225      C2230   1.405       .  A
C2225      H2235   1.083       .  S
C2226      C2231   1.470       .  S
C2226      C2227   1.411   1_545  A
C2227      C2228   1.398       .  A
C2227      C2232   1.522       .  S
C2228      C2229   1.406       .  A
C2228      H2233   1.083       .  S
C2229      C2230   1.420   1_565  A
C2230      C2234   1.519       .  S
C2231      C2236   1.410       .  A
C2231      C2240   1.397       .  A
C2232      F2248   1.382   1_565  S
C2232      F2249   1.382       .  S
C2232      F2250   1.385       .  S
C2234      F2245   1.385       .  S
C2234      F2246   1.383       .  S
C2234      F2247   1.384       .  S
C2236      C2237   1.400       .  A
C2236      C2241   1.521   1_545  S
C2237      C2238   1.408       .  A
C2237      H2242   1.082       .  S
C2238      C2239   1.426       .  A
C2239      C2240   1.403       .  A
C2239      C2243   1.522       .  S
C2240      H2244   1.083       .  S
C2241      F2254   1.385       .  S
C2241      F2255   1.382       .  S
C2241      F2256   1.382       .  S
C2243      F2251   1.385       .  S
C2243      F2252   1.384       .  S
C2243      F2253   1.383       .  S
C2257      C2258   1.403       .  A
C2257      C2262   1.405       .  A
C2257      H2267   1.083       .  S
C2258      C2263   1.490       .  S
C2258      C2259   1.421       .  A
C2259      C2260   1.410       .  A
C2259      C2264   1.517       .  S
C2260      C2261   1.403       .  A
C2260      H2265   1.084       .  S
C2261      C2262   1.416       .  A
C2262      C2266   1.519   1_455  S
C2263      C2268   1.415       .  A
C2263      C2272   1.401       .  A
C2264      F2280   1.382       .  S
C2264      F2281   1.382       .  S
C2264      F2282   1.383       .  S
C2266      F2277   1.385       .  S
C2266      F2278   1.382       .  S
C2266      F2279   1.384       .  S
C2268      C2269   1.411       .  A
C2268      C2273   1.517       .  S
C2269      C2270   1.408       .  A
C2269      H2274   1.083       .  S
C2270      C2271   1.428       .  A
C2271      C2272   1.408       .  A
C2271      C2275   1.523       .  S
C2272      H2276   1.084       .  S
C2273      F2286   1.385       .  S
C2273      F2287   1.381       .  S
C2273      F2288   1.383       .  S
C2275      F2283   1.385       .  S
C2275      F2284   1.383       .  S
C2275      F2285   1.384       .  S
C2289      C2290   1.402       .  A
C2289      C2294   1.409       .  A
C2289      H2299   1.083       .  S
C2290      C2295   1.482       .  S
C2290      C2291   1.413   1_655  A
C2291      C2292   1.404       .  A
C2291      C2296   1.521       .  S
C2292      C2293   1.408       .  A
C2292      H2297   1.083       .  S
C2293      C2294   1.422   1_455  A
C2294      C2298   1.519       .  S
C2295      C2300   1.413       .  A
C2295      C2304   1.400       .  A
C2296      F2312   1.382       .  S
C2296      F2313   1.382   1_455  S
C2296      F2314   1.385       .  S
C2298      F2309   1.385       .  S
C2298      F2310   1.384   1_655  S
C2298      F2311   1.383       .  S
C2300      C2301   1.407       .  A
C2300      C2305   1.519       .  S
C2301      C2302   1.407       .  A
C2301      H2306   1.083       .  S
C2302      C2303   1.422       .  A
C2303      C2304   1.406       .  A
C2303      C2307   1.519   1_655  S
C2304      H2308   1.083   1_655  S
C2305      F2318   1.385       .  S
C2305      F2319   1.382       .  S
C2305      F2320   1.382       .  S
C2307      F2315   1.385       .  S
C2307      F2316   1.382       .  S
C2307      F2317   1.382       .  S
C2321      C2322   1.399       .  A
C2321      C2326   1.402       .  A
C2321      H2331   1.083       .  S
C2322      C2327   1.478       .  S
C2322      C2323   1.410       .  A
C2323      C2324   1.407       .  A
C2323      C2328   1.517       .  S
C2324      C2325   1.411       .  A
C2324      H2329   1.083       .  S
C2325      C2326   1.426       .  A
C2326      C2330   1.523       .  S
C2327      C2332   1.417       .  A
C2327      C2336   1.403   1_545  A
C2328      F2344   1.382   1_545  S
C2328      F2345   1.383       .  S
C2328      F2346   1.385       .  S
C2330      F2341   1.384       .  S
C2330      F2342   1.385       .  S
C2330      F2343   1.384       .  S
C2332      C2333   1.403       .  A
C2332      C2337   1.516       .  S
C2333      C2334   1.399   1_545  A
C2333      H2338   1.084       .  S
C2334      C2335   1.412       .  A
C2335      C2336   1.403       .  A
C2335      C2339   1.516       .  S
C2336      H2340   1.083       .  S
C2337      F2350   1.383       .  S
C2337      F2351   1.383       .  S
C2337      F2352   1.383       .  S
C2339      F2347   1.382       .  S
C2339      F2348   1.383       .  S
C2339      F2349   1.385       .  S
C2353      C2354   1.400       .  A
C2353      C2358   1.406       .  A
C2353      H2363   1.083       .  S
C2354      C2359   1.483       .  S
C2354      C2355   1.416       .  A
C2355      C2356   1.407       .  A
C2355      C2360   1.520   1_655  S
C2356      C2357   1.403       .  A
C2356      H2361   1.083       .  S
C2357      C2358   1.420       .  A
C2358      C2362   1.520       .  S
C2359      C2364   1.415       .  A
C2359      C2368   1.400   1_655  A
C2360      F2376   1.382       .  S
C2360      F2377   1.381   1_455  S
C2360      F2378   1.385       .  S
C2362      F2373   1.385       .  S
C2362      F2374   1.382       .  S
C2362      F2375   1.383       .  S
C2364      C2365   1.408       .  A
C2364      C2369   1.518       .  S
C2365      C2366   1.404   1_655  A
C2365      H2370   1.083       .  S
C2366      C2367   1.422       .  A
C2367      C2368   1.405       .  A
C2367      C2371   1.522       .  S
C2368      H2372   1.083       .  S
C2369      F2382   1.384       .  S
C2369      F2383   1.382       .  S
C2369      F2384   1.382       .  S
C2371      F2379   1.385       .  S
C2371      F2380   1.383       .  S
C2371      F2381   1.382       .  S
C2385      C2386   1.403       .  A
C2385      C2390   1.408       .  A
C2385      H2395   1.084       .  S
C2386      C2391   1.484       .  S
C2386      C2387   1.415       .  A
C2387      C2388   1.403       .  A
C2387      C2392   1.518       .  S
C2388      C2389   1.408       .  A
C2388      H2393   1.084       .  S
C2389      C2390   1.423       .  A
C2390      C2394   1.519       .  S
C2391      C2396   1.415       .  A
C2391      C2400   1.403       .  A
C2392      F2408   1.383       .  S
C2392      F2409   1.382       .  S
C2392      F2410   1.384       .  S
C2394      F2405   1.385       .  S
C2394      F2406   1.383       .  S
C2394      F2407   1.383       .  S
C2396      C2397   1.404       .  A
C2396      C2401   1.517       .  S
C2397      C2398   1.403       .  A
C2397      H2402   1.083       .  S
C2398      C2399   1.423       .  A
C2399      C2400   1.407       .  A
C2399      C2403   1.521       .  S
C2400      H2404   1.085       .  S
C2401      F2414   1.384       .  S
C2401      F2415   1.383       .  S
C2401      F2416   1.382       .  S
C2403      F2411   1.385       .  S
C2403      F2412   1.382       .  S
C2403      F2413   1.383       .  S
C2417      C2418   1.399       .  A
C2417      C2422   1.408       .  A
C2417      H2427   1.083       .  S
C2418      C2423   1.477       .  S
C2418      C2419   1.412       .  A
C2419      C2420   1.403       .  A
C2419      C2424   1.522       .  S
C2420      C2421   1.410       .  A
C2420      H2425   1.082       .  S
C2421      C2422   1.423       .  A
C2422      C2426   1.514       .  S
C2423      C2428   1.416       .  A
C2423      C2432   1.398       .  A
C2424      F2440   1.382       .  S
C2424      F2441   1.382       .  S
C2424      F2442   1.385       .  S
C2426      F2437   1.385       .  S
C2426      F2438   1.383       .  S
C2426      F2439   1.382       .  S
C2428      C2429   1.407       .  A
C2428      C2433   1.519       .  S
C2429      C2430   1.402       .  A
C2429      H2434   1.082       .  S
C2430      C2431   1.412       .  A
C2431      C2432   1.401       .  A
C2431      C2435   1.510       .  S
C2432      H2436   1.084       .  S
C2433      F2446   1.385       .  S
C2433      F2447   1.382       .  S
C2433      F2448   1.382       .  S
C2435      F2443   1.384       .  S
C2435      F2444   1.384       .  S
C2435      F2445   1.381       .  S
C2449      C2450   1.397   1_455  A
C2449      C2454   1.408   1_455  A
C2449      H2459   1.083       .  S
C2450      C2455   1.480   1_655  S
C2450      C2451   1.412       .  A
C2451      C2452   1.404       .  A
C2451      C2456   1.521       .  S
C2452      C2453   1.410       .  A
C2452      H2457   1.082       .  S
C2453      C2454   1.430       .  A
C2454      C2458   1.521   1_655  S
C2455      C2460   1.415       .  A
C2455      C2464   1.404   1_455  A
C2456      F2472   1.382       .  S
C2456      F2473   1.383       .  S
C2456      F2474   1.384       .  S
C2458      F2469   1.383       .  S
C2458      F2470   1.385       .  S
C2458      F2471   1.383   1_455  S
C2460      C2461   1.399       .  A
C2460      C2465   1.522       .  S
C2461      C2462   1.403       .  A
C2461      H2466   1.084       .  S
C2462      C2463   1.418       .  A
C2463      C2464   1.410   1_455  A
C2463      C2467   1.518   1_455  S
C2464      H2468   1.083       .  S
C2465      F2478   1.385       .  S
C2465      F2479   1.382       .  S
C2465      F2480   1.383       .  S
C2467      F2475   1.382   1_655  S
C2467      F2476   1.384       .  S
C2467      F2477   1.385       .  S
C2481      C2482   1.398       .  A
C2481      C2486   1.406       .  A
C2481      H2491   1.083       .  S
C2482      C2487   1.476       .  S
C2482      C2483   1.410       .  A
C2483      C2484   1.401       .  A
C2483      C2488   1.521       .  S
C2484      C2485   1.411       .  A
C2484      H2489   1.082       .  S
C2485      C2486   1.428       .  A
C2486      C2490   1.522       .  S
C2487      C2492   1.411   1_565  A
C2487      C2496   1.397       .  A
C2488      F2504   1.382       .  S
C2488      F2505   1.382       .  S
C2488      F2506   1.385       .  S
C2490      F2501   1.383       .  S
C2490      F2502   1.385       .  S
C2490      F2503   1.384       .  S
C2492      C2493   1.402       .  A
C2492      C2497   1.521       .  S
C2493      C2494   1.410       .  A
C2493      H2498   1.082       .  S
C2494      C2495   1.429   1_545  A
C2495      C2496   1.406       .  A
C2495      C2499   1.523       .  S
C2496      H2500   1.083       .  S
C2497      F2510   1.384       .  S
C2497      F2511   1.382       .  S
C2497      F2512   1.382       .  S
C2499      F2507   1.383       .  S
C2499      F2508   1.383       .  S
C2499      F2509   1.385       .  S
C2513      C2514   1.404       .  A
C2513      C2518   1.416       .  A
C2513      H2523   1.083       .  S
C2514      C2519   1.489       .  S
C2514      C2515   1.416       .  A
C2515      C2516   1.404       .  A
C2515      C2520   1.523       .  S
C2516      C2517   1.408       .  A
C2516      H2521   1.083       .  S
C2517      C2518   1.422       .  A
C2518      C2522   1.518       .  S
C2519      C2524   1.415       .  A
C2519      C2528   1.400       .  A
C2520      F2536   1.383       .  S
C2520      F2537   1.381       .  S
C2520      F2538   1.385       .  S
C2522      F2533   1.381       .  S
C2522      F2534   1.385       .  S
C2522      F2535   1.384       .  S
C2524      C2525   1.412       .  A
C2524      C2529   1.517       .  S
C2525      C2526   1.406       .  A
C2525      H2530   1.081       .  S
C2526      C2527   1.420       .  A
C2527      C2528   1.405       .  A
C2527      C2531   1.515       .  S
C2528      H2532   1.085       .  S
C2529      F2542   1.384       .  S
C2529      F2543   1.383       .  S
C2529      F2544   1.381       .  S
C2531      F2539   1.383       .  S
C2531      F2540   1.383       .  S
C2531      F2541   1.379   1_565  S
C2545      C2546   1.398       .  A
C2545      C2550   1.398       .  A
C2545      H2555   1.084       .  S
C2546      C2551   1.473   1_655  S
C2546      C2547   1.411       .  A
C2547      C2548   1.406       .  A
C2547      C2552   1.517   1_655  S
C2548      C2549   1.406       .  A
C2548      H2553   1.081       .  S
C2549      C2550   1.419       .  A
C2550      C2554   1.518       .  S
C2551      C2556   1.414       .  A
C2551      C2560   1.400       .  A
C2552      F2568   1.383       .  S
C2552      F2569   1.382       .  S
C2552      F2570   1.385       .  S
C2554      F2565   1.382       .  S
C2554      F2566   1.385       .  S
C2554      F2567   1.382       .  S
C2556      C2557   1.398       .  A
C2556      C2561   1.524       .  S
C2557      C2558   1.404       .  A
C2557      H2562   1.079       .  S
C2558      C2559   1.422       .  A
C2559      C2560   1.409       .  A
C2559      C2563   1.517       .  S
C2560      H2564   1.083   1_455  S
C2561      F2574   1.385       .  S
C2561      F2575   1.382       .  S
C2561      F2576   1.381       .  S
C2563      F2571   1.381   1_455  S
C2563      F2572   1.378       .  S
C2563      F2573   1.385   1_455  S
C2577      C2578   1.403       .  A
C2577      C2582   1.412       .  A
C2577      H2587   1.083       .  S
C2578      C2583   1.483       .  S
C2578      C2579   1.413       .  A
C2579      C2580   1.402       .  A
C2579      C2584   1.522       .  S
C2580      C2581   1.405       .  A
C2580      H2585   1.082       .  S
C2581      C2582   1.419       .  A
C2582      C2586   1.516       .  S
C2583      C2588   1.413       .  A
C2583      C2592   1.399       .  A
C2584      F2600   1.383       .  S
C2584      F2601   1.382       .  S
C2584      F2602   1.384       .  S
C2586      F2597   1.383       .  S
C2586      F2598   1.385       .  S
C2586      F2599   1.383       .  S
C2588      C2589   1.404       .  A
C2588      C2593   1.521       .  S
C2589      C2590   1.409       .  A
C2589      H2594   1.082       .  S
C2590      C2591   1.427       .  A
C2591      C2592   1.410       .  A
C2591      C2595   1.519       .  S
C2592      H2596   1.083       .  S
C2593      F2606   1.384   1_655  S
C2593      F2607   1.383   1_655  S
C2593      F2608   1.382       .  S
C2595      F2603   1.385       .  S
C2595      F2604   1.384       .  S
C2595      F2605   1.383       .  S
C2609      C2610   1.403       .  A
C2609      C2614   1.411       .  A
C2609      H2619   1.083       .  S
C2610      C2615   1.490       .  S
C2610      C2611   1.418   1_455  A
C2611      C2612   1.408       .  A
C2611      C2616   1.521       .  S
C2612      C2613   1.404       .  A
C2612      H2617   1.083       .  S
C2613      C2614   1.421   1_655  A
C2614      C2618   1.518       .  S
C2615      C2620   1.418       .  A
C2615      C2624   1.402       .  A
C2616      F2632   1.382       .  S
C2616      F2633   1.383       .  S
C2616      F2634   1.384       .  S
C2618      F2629   1.382       .  S
C2618      F2630   1.385       .  S
C2618      F2631   1.382       .  S
C2620      C2621   1.410       .  A
C2620      C2625   1.518       .  S
C2621      C2622   1.402       .  A
C2621      H2626   1.083       .  S
C2622      C2623   1.417       .  A
C2623      C2624   1.407       .  A
C2623      C2627   1.519       .  S
C2624      H2628   1.083       .  S
C2625      F2638   1.384       .  S
C2625      F2639   1.382       .  S
C2625      F2640   1.383       .  S
C2627      F2635   1.384   1_455  S
C2627      F2636   1.383       .  S
C2627      F2637   1.382   1_455  S
C2641      C2642   1.400       .  A
C2641      C2646   1.405       .  A
C2641      H2651   1.083       .  S
C2642      C2647   1.485       .  S
C2642      C2643   1.414       .  A
C2643      C2644   1.409       .  A
C2643      C2648   1.519       .  S
C2644      C2645   1.407       .  A
C2644      H2649   1.083       .  S
C2645      C2646   1.425       .  A
C2646      C2650   1.523       .  S
C2647      C2652   1.414       .  A
C2647      C2656   1.402       .  A
C2648      F2664   1.382       .  S
C2648      F2665   1.382       .  S
C2648      F2666   1.384       .  S
C2650      F2661   1.385       .  S
C2650      F2662   1.383       .  S
C2650      F2663   1.381       .  S
C2652      C2653   1.405       .  A
C2652      C2657   1.520       .  S
C2653      C2654   1.408       .  A
C2653      H2658   1.082       .  S
C2654      C2655   1.422       .  A
C2655      C2656   1.409       .  A
C2655      C2659   1.519       .  S
C2656      H2660   1.083       .  S
C2657      F2670   1.385       .  S
C2657      F2671   1.382       .  S
C2657      F2672   1.382       .  S
C2659      F2667   1.383       .  S
C2659      F2668   1.383       .  S
C2659      F2669   1.385       .  S
C2673      C2674   1.404       .  A
C2673      C2678   1.409       .  A
C2673      H2683   1.083       .  S
C2674      C2679   1.480       .  S
C2674      C2675   1.415       .  A
C2675      C2676   1.400       .  A
C2675      C2680   1.521       .  S
C2676      C2677   1.402       .  A
C2676      H2681   1.084       .  S
C2677      C2678   1.415       .  A
C2678      C2682   1.517       .  S
C2679      C2684   1.414       .  A
C2679      C2688   1.400       .  A
C2680      F2696   1.382       .  S
C2680      F2697   1.383       .  S
C2680      F2698   1.385       .  S
C2682      F2693   1.383       .  S
C2682      F2694   1.385       .  S
C2682      F2695   1.383       .  S
C2684      C2685   1.401       .  A
C2684      C2689   1.522       .  S
C2685      C2686   1.407       .  A
C2685      H2690   1.083       .  S
C2686      C2687   1.424       .  A
C2687      C2688   1.409       .  A
C2687      C2691   1.517       .  S
C2688      H2692   1.083       .  S
C2689      F2702   1.385       .  S
C2689      F2703   1.382       .  S
C2689      F2704   1.383       .  S
C2691      F2699   1.385       .  S
C2691      F2700   1.383       .  S
C2691      F2701   1.380       .  S
C2705      C2706   1.398       .  A
C2705      C2710   1.402       .  A
C2705      H2715   1.084       .  S
C2706      C2711   1.479       .  S
C2706      C2707   1.414       .  A
C2707      C2708   1.405       .  A
C2707      C2712   1.518       .  S
C2708      C2709   1.411       .  A
C2708      H2713   1.084       .  S
C2709      C2710   1.428       .  A
C2710      C2714   1.525       .  S
C2711      C2716   1.411       .  A
C2711      C2720   1.401       .  A
C2712      F2728   1.383       .  S
C2712      F2729   1.382       .  S
C2712      F2730   1.384       .  S
C2714      F2725   1.385       .  S
C2714      F2726   1.384       .  S
C2714      F2727   1.384       .  S
C2716      C2717   1.403       .  A
C2716      C2721   1.519       .  S
C2717      C2718   1.410       .  A
C2717      H2722   1.082       .  S
C2718      C2719   1.424       .  A
C2719      C2720   1.406       .  A
C2719      C2723   1.519   1_545  S
C2720      H2724   1.084       .  S
C2721      F2734   1.384       .  S
C2721      F2735   1.382       .  S
C2721      F2736   1.383       .  S
C2723      F2731   1.385       .  S
C2723      F2732   1.383       .  S
C2723      F2733   1.384       .  S
C2737      C2738   1.402       .  A
C2737      C2742   1.407       .  A
C2737      H2747   1.083       .  S
C2738      C2743   1.483       .  S
C2738      C2739   1.418   1_565  A
C2739      C2740   1.405       .  A
C2739      C2744   1.520       .  S
C2740      C2741   1.401       .  A
C2740      H2745   1.084       .  S
C2741      C2742   1.416   1_545  A
C2742      C2746   1.518       .  S
C2743      C2748   1.412       .  A
C2743      C2752   1.400       .  A
C2744      F2760   1.382       .  S
C2744      F2761   1.382       .  S
C2744      F2762   1.385       .  S
C2746      F2757   1.385       .  S
C2746      F2758   1.382       .  S
C2746      F2759   1.384       .  S
C2748      C2749   1.407       .  A
C2748      C2753   1.518       .  S
C2749      C2750   1.407       .  A
C2749      H2754   1.083       .  S
C2750      C2751   1.423       .  A
C2751      C2752   1.406       .  A
C2751      C2755   1.521       .  S
C2752      H2756   1.083       .  S
C2753      F2766   1.384       .  S
C2753      F2767   1.383       .  S
C2753      F2768   1.382       .  S
C2755      F2763   1.383       .  S
C2755      F2764   1.383   1_455  S
C2755      F2765   1.385       .  S
C2769      C2770   1.400       .  A
C2769      C2774   1.408       .  A
C2769      H2779   1.083       .  S
C2770      C2775   1.475       .  S
C2770      C2771   1.409       .  A
C2771      C2772   1.400       .  A
C2771      C2776   1.522       .  S
C2772      C2773   1.410       .  A
C2772      H2777   1.082       .  S
C2773      C2774   1.426       .  A
C2774      C2778   1.521       .  S
C2775      C2780   1.414   1_565  A
C2775      C2784   1.403       .  A
C2776      F2792   1.382       .  S
C2776      F2793   1.382   1_565  S
C2776      F2794   1.384       .  S
C2778      F2789   1.382       .  S
C2778      F2790   1.385       .  S
C2778      F2791   1.383       .  S
C2780      C2781   1.402       .  A
C2780      C2785   1.521       .  S
C2781      C2782   1.402       .  A
C2781      H2786   1.084       .  S
C2782      C2783   1.412   1_545  A
C2783      C2784   1.405       .  A
C2783      C2787   1.516       .  S
C2784      H2788   1.083       .  S
C2785      F2798   1.385       .  S
C2785      F2799   1.382       .  S
C2785      F2800   1.382       .  S
C2787      F2795   1.383       .  S
C2787      F2796   1.382       .  S
C2787      F2797   1.385       .  S
C2801      C2802   1.399       .  A
C2801      C2806   1.398       .  A
C2801      H2811   1.084       .  S
C2802      C2807   1.479       .  S
C2802      C2803   1.413       .  A
C2803      C2804   1.409       .  A
C2803      C2808   1.516       .  S
C2804      C2805   1.407       .  A
C2804      H2809   1.082       .  S
C2805      C2806   1.422       .  A
C2806      C2810   1.522       .  S
C2807      C2812   1.413       .  A
C2807      C2816   1.400       .  A
C2808      F2824   1.381       .  S
C2808      F2825   1.383       .  S
C2808      F2826   1.385       .  S
C2810      F2821   1.382       .  S
C2810      F2822   1.385       .  S
C2810      F2823   1.382       .  S
C2812      C2813   1.401       .  A
C2812      C2817   1.515       .  S
C2813      C2814   1.407       .  A
C2813      H2818   1.084       .  S
C2814      C2815   1.423       .  A
C2815      C2816   1.404       .  A
C2815      C2819   1.516       .  S
C2816      H2820   1.084       .  S
C2817      F2830   1.383       .  S
C2817      F2831   1.383       .  S
C2817      F2832   1.383       .  S
C2819      F2827   1.381       .  S
C2819      F2828   1.384       .  S
C2819      F2829   1.385       .  S
