geometry optimzed in LAMMPS
_audit_creation_date              2020-12-01 
_audit_creation_method            'lammps2cif' 
_symmetry_space_group_name_H-M    'P1' 
_symmetry_Int_Tables_number       1 
_symmetry_cell_setting            triclinic 
loop_ 
_symmetry_equiv_pos_as_xyz 
  x,y,z 
_cell_length_a                    43.61349407 
_cell_length_b                    43.655931943733485 
_cell_length_c                    32.9643865948514 
_cell_angle_alpha                 90.1396112444569 
_cell_angle_beta                  90.10077751237009 
_cell_angle_gamma                 90.25114660663105 
loop_ 
_atom_site_label 
_atom_site_type_symbol 
_atom_site_fract_x 
_atom_site_fract_y 
_atom_site_fract_z 
_atom_site_charge 
N1          N  0.53811079  0.85052224  0.04206386    -0.36400
N2          N  0.47324177  0.86111742  0.04201662    -0.57000
N3          N  0.47369075  0.85314272  0.45168345    -0.36400
N4          N  0.53961329  0.84913576  0.45173628    -0.57000
C5          C  0.53273472  0.85086365  0.08252456     0.27200
C6          C  0.56831561  0.85651781  0.03619309     0.27200
C7          C  0.44616116  0.86672339  0.45729755     0.27100
C8          C  0.47948609  0.85334407  0.41132365     0.27100
C9          C  0.47797491  0.86006804  0.08253326     0.35800
C10         C  0.44456668  0.87183851  0.03623877     0.35800
C11         C  0.56949251  0.85636408  0.45746637     0.35800
C12         C  0.53454858  0.84913383  0.41120453     0.35800
C13         C  0.55976888  0.85797197  0.10262032    -0.21700
C14         C  0.58222649  0.86088104  0.07370197    -0.21700
C15         C  0.43453670  0.87594979  0.42018473    -0.21700
C16         C  0.45595577  0.86837075  0.39136797    -0.21700
C17         C  0.45350064  0.87350103  0.10233511    -0.22800
C18         C  0.43176434  0.87958484  0.07333086    -0.22800
C19         C  0.58305522  0.86287044  0.42047330    -0.22800
C20         C  0.56072626  0.85913938  0.39137683    -0.22800
C21         C  0.50367587  0.84593077  0.10122442    -0.18100
C22         C  0.58384004  0.85734091  0.99819836    -0.18100
C23         C  0.50612259  0.84119316  0.39256895    -0.18100
C24         C  0.42976741  0.87371338  0.99801601    -0.18100
H25         H  0.56309943  0.86107278  0.13485498     0.14800
H26         H  0.60601437  0.86587174  0.08014947     0.14800
H27         H  0.41313765  0.88770084  0.41462831     0.14800
H28         H  0.45445364  0.87362990  0.35937210     0.14800
H29         H  0.45106656  0.87766175  0.13453189     0.13100
H30         H  0.40931701  0.88876469  0.07950625     0.13100
H31         H  0.60645956  0.87011630  0.41509998     0.13100
H32         H  0.56350227  0.86331320  0.35926178     0.13100
H33         H  0.52253345  0.84313670  0.02040330     0.26300
H34         H  0.48612260  0.84105407  0.47317840     0.26300
N35         N  0.53371158  0.81795127  0.20174160    -0.36400
N36         N  0.46837048  0.82319945  0.20286643    -0.57000
N37         N  0.46956276  0.82307395  0.29094430    -0.36400
N38         N  0.53412794  0.81252837  0.28949406    -0.57000
C39         C  0.52690841  0.81698225  0.16171154     0.27200
C40         C  0.55984303  0.80185305  0.20700781     0.27200
C41         C  0.43987133  0.81482339  0.28498232     0.27100
C42         C  0.47572729  0.82030037  0.33104441     0.27100
C43         C  0.47264818  0.82448296  0.16225113     0.35800
C44         C  0.43838951  0.81693397  0.20900680     0.35800
C45         C  0.56262219  0.80169713  0.28260395     0.35800
C46         C  0.53071268  0.81452766  0.33020526     0.35800
C47         C  0.54817670  0.79903958  0.14156212    -0.21700
C48         C  0.56942430  0.79013913  0.17001698    -0.21700
C49         C  0.42714432  0.80651603  0.32197541    -0.21700
C50         C  0.44995046  0.80916858  0.35073331    -0.21700
C51         C  0.44577455  0.81609002  0.14254142    -0.22800
C52         C  0.42387028  0.81226287  0.17203826    -0.22800
C53         C  0.57671420  0.79485409  0.31915679    -0.22800
C54         C  0.55605470  0.80184537  0.34914148    -0.22800
C55         C  0.50124622  0.83120863  0.14356786    -0.18100
C56         C  0.57611912  0.79826036  0.24382460    -0.18100
C57         C  0.50445663  0.82698986  0.34968638    -0.18100
C58         C  0.42379603  0.81513381  0.24736110    -0.18100
H59         H  0.54834604  0.79302561  0.10969170     0.14800
H60         H  0.58939380  0.77614539  0.16432391     0.14800
H61         H  0.40400294  0.79882579  0.32790696     0.14800
H62         H  0.44777816  0.80348858  0.38254141     0.14800
H63         H  0.44232617  0.81271554  0.11032265     0.13100
H64         H  0.40015229  0.80594965  0.16688944     0.13100
H65         H  0.59927330  0.78536473  0.32398577     0.13100
H66         H  0.55944645  0.79793894  0.38122517     0.13100
H67         H  0.52301059  0.83193962  0.22295710     0.26300
H68         H  0.48405597  0.83342208  0.27008270     0.26300
N69         N  0.95377321  0.36600933  0.05222450    -0.36400
N70         N  0.95705987  0.36401006  0.46440806    -0.57000
N71         N  0.95486545  0.42968760  0.46303319    -0.36400
N72         N  0.95695662  0.43138276  0.05210003    -0.57000
C73         C  0.96492448  0.33741914  0.04622213     0.27200
C74         C  0.95727009  0.37259192  0.09209089     0.27200
C75         C  0.95912019  0.42218017  0.42362200     0.27100
C76         C  0.96828394  0.45738065  0.46902462     0.27100
C77         C  0.96321961  0.33418336  0.47122895     0.35800
C78         C  0.95487002  0.36745521  0.42374325     0.35800
C79         C  0.95134651  0.42798596  0.09233201     0.35800
C80         C  0.96094250  0.46172083  0.04513977     0.35800
C81         C  0.97615625  0.32605923  0.08249892    -0.21700
C82         C  0.97218786  0.34863499  0.11108767    -0.21700
C83         C  0.97659313  0.44450254  0.40479757    -0.21700
C84         C  0.98188285  0.46709359  0.43323621    -0.21700
C85         C  0.96721919  0.31896369  0.43474936    -0.22800
C86         C  0.96282572  0.34022869  0.40473068    -0.22800
C87         C  0.95435616  0.45638784  0.11111096    -0.22800
C88         C  0.95930328  0.47769555  0.08130794    -0.22800
C89         C  0.96557468  0.32044303  0.50987194    -0.18100
C90         C  0.94577042  0.39910077  0.11171852    -0.18100
C91         C  0.96706763  0.47496444  0.50515171    -0.18100
C92         C  0.94726320  0.39557026  0.40457347    -0.18100
H93         H  0.98647744  0.30398272  0.08797416     0.14800
H94         H  0.97883609  0.34723739  0.14265200     0.14800
H95         H  0.98387842  0.44467048  0.37349479     0.14800
H96         H  0.99431036  0.48826054  0.42820233     0.14800
H97         H  0.97343525  0.29521951  0.43026068     0.13100
H98         H  0.96581514  0.33603516  0.37264773     0.13100
H99         H  0.95507067  0.46155796  0.14313260     0.13100
H100        H  0.96263939  0.50198144  0.08624213     0.13100
H101        H  0.94076017  0.37872678  0.03189349     0.26300
H102        H  0.94034391  0.41814440  0.48289542     0.26300
N103        N  0.92445356  0.43006619  0.30219599    -0.36400
N104        N  0.92435808  0.36378073  0.30272790    -0.57000
N105        N  0.92735385  0.36253746  0.21419755    -0.36400
N106        N  0.92382656  0.42886557  0.21366587    -0.57000
C107        C  0.92643226  0.42566477  0.34269324     0.27200
C108        C  0.91701861  0.45964318  0.29523275     0.27200
C109        C  0.91730886  0.33360623  0.22090412     0.27100
C110        C  0.92632648  0.36775208  0.17372274     0.27100
C111        C  0.92136235  0.37019743  0.34265144     0.35800
C112        C  0.91307912  0.33530438  0.29673262     0.35800
C113        C  0.90914602  0.45542599  0.22048109     0.35800
C114        C  0.91909538  0.42177023  0.17435842     0.35800
C115        C  0.91881394  0.45292065  0.36198488    -0.21700
C116        C  0.91405491  0.47453454  0.33221319    -0.21700
C117        C  0.90996833  0.32009264  0.18398532    -0.21700
C118        C  0.91480161  0.34187037  0.15442620    -0.21700
C119        C  0.90599556  0.34636860  0.36169080    -0.22800
C120        C  0.90166311  0.32384466  0.33288907    -0.22800
C121        C  0.89406764  0.46477245  0.18558559    -0.22800
C122        C  0.89956109  0.44278036  0.15658949    -0.22800
C123        C  0.93317049  0.39704699  0.36175983    -0.18100
C124        C  0.91159474  0.47286133  0.25645779    -0.18100
C125        C  0.93260252  0.39647033  0.15493112    -0.18100
C126        C  0.91317505  0.31935112  0.25926621    -0.18100
H127        H  0.91580894  0.45687433  0.39411864     0.14800
H128        H  0.90786564  0.49810150  0.33772188     0.14800
H129        H  0.90058625  0.29741113  0.17897412     0.14800
H130        H  0.90935045  0.33925016  0.12256969     0.14800
H131        H  0.89927293  0.34508803  0.39323519     0.13100
H132        H  0.89084454  0.30181415  0.33782735     0.13100
H133        H  0.88058738  0.48530662  0.18158590     0.13100
H134        H  0.89117647  0.44274949  0.12566596     0.13100
H135        H  0.93032062  0.41413844  0.28047644     0.26300
H136        H  0.93713810  0.37722090  0.23534117     0.26300
N137        N  0.46173000  0.97958864  0.04487687    -0.36400
N138        N  0.52721610  0.97627074  0.04519421    -0.57000
N139        N  0.53076636  0.97334516  0.45624530    -0.36400
N140        N  0.46595469  0.98351511  0.45574341    -0.57000
C141        C  0.46766332  0.98135791  0.08509372     0.27200
C142        C  0.43496000  0.99432966  0.03811536     0.27200
C143        C  0.55940689  0.98438605  0.46272908     0.27100
C144        C  0.52497302  0.97584064  0.41603406     0.27100
C145        C  0.52250205  0.97527658  0.08582150     0.35800
C146        C  0.55753258  0.98136708  0.03943305     0.35800
C147        C  0.43812680  0.99621560  0.46100658     0.35800
C148        C  0.47084401  0.98253002  0.41532561     0.35800
C149        C  0.44517178  0.99858978  0.10387961    -0.21700
C150        C  0.42395760  0.00580067  0.07456369    -0.21700
C151        C  0.57169780  0.99438130  0.42624507    -0.21700
C152        C  0.54968281  0.98962062  0.39693316    -0.21700
C153        C  0.54954369  0.98270320  0.10577921    -0.22800
C154        C  0.57186588  0.98533192  0.07668017    -0.22800
C155        C  0.42617168  0.00527514  0.42395858    -0.22800
C156        C  0.44740525  0.99749564  0.39511798    -0.22800
C157        C  0.49370053  0.96875877  0.10450241    -0.18100
C158        C  0.42288663  0.99924470  0.49856243    -0.18100
C159        C  0.49667680  0.96860279  0.39721661    -0.18100
C160        C  0.57516257  0.98553925  0.50035045    -0.18100
H161        H  0.44419848  0.00543236  0.13542621     0.14800
H162        H  0.40341718  0.01894659  0.07973661     0.14800
H163        H  0.59390326  0.00493348  0.42149886     0.14800
H164        H  0.55137170  0.99616907  0.36536650     0.14800
H165        H  0.55299405  0.98596083  0.13801139     0.13100
H166        H  0.59579840  0.99003818  0.08265994     0.13100
H167        H  0.40458679  0.01667592  0.41839481     0.13100
H168        H  0.44559499  0.00199555  0.36293610     0.13100
H169        H  0.47370281  0.96607051  0.02437375     0.26300
H170        H  0.51683539  0.96198231  0.47695615     0.26300
N171        N  0.52640742  0.94423621  0.29399724    -0.36400
N172        N  0.52344326  0.94178918  0.20609558    -0.57000
N173        N  0.45825130  0.95255044  0.20824266    -0.36400
N174        N  0.46047751  0.94699457  0.29616077    -0.57000
C175        C  0.55459785  0.93262902  0.28660348     0.27200
C176        C  0.52193590  0.94397934  0.33457241     0.27200
C177        C  0.46272464  0.95101463  0.16759358     0.27100
C178        C  0.42837874  0.94592627  0.21560591     0.27100
C179        C  0.55167388  0.92973050  0.21096501     0.35800
C180        C  0.51716901  0.94089456  0.16595189     0.35800
C181        C  0.46628090  0.94660843  0.33649828     0.35800
C182        C  0.42994302  0.94270181  0.29147184     0.35800
C183        C  0.56822862  0.92483653  0.32318212    -0.21700
C184        C  0.54728523  0.93108207  0.35320807    -0.21700
C185        C  0.43540504  0.94243355  0.14905163    -0.21700
C186        C  0.41366789  0.93990956  0.17912300    -0.21700
C187        C  0.56264303  0.91936372  0.17405174    -0.22800
C188        C  0.54027224  0.92540968  0.14579648    -0.22800
C189        C  0.43967872  0.93904497  0.35715465    -0.22800
C190        C  0.41656132  0.93754017  0.32896248    -0.22800
C191        C  0.56830064  0.92886937  0.24787419    -0.18100
C192        C  0.49503450  0.95442921  0.35451362    -0.18100
C193        C  0.41381154  0.94473676  0.25414433    -0.18100
C194        C  0.49145934  0.95524114  0.14764140    -0.18100
H195        H  0.59050890  0.91476816  0.32807605     0.14800
H196        H  0.55031334  0.92608631  0.38508343     0.14800
H197        H  0.43156895  0.93769690  0.11724046     0.14800
H198        H  0.38994554  0.93327954  0.17474416     0.14800
H199        H  0.58443025  0.90844449  0.16820290     0.13100
H200        H  0.54136646  0.92003834  0.11377881     0.13100
H201        H  0.43690361  0.93596266  0.38945581     0.13100
H202        H  0.39266628  0.93341461  0.33574172     0.13100
H203        H  0.51232460  0.95516663  0.27334830     0.26300
H204        H  0.47408472  0.96090732  0.22901632     0.26300
N205        N  0.07324607  0.37471291  0.43845321    -0.36400
N206        N  0.07488965  0.44105309  0.44003485    -0.57000
N207        N  0.07415900  0.44066306  0.02894366    -0.36400
N208        N  0.08000461  0.37516743  0.02654169    -0.57000
C209        C  0.07386869  0.38088490  0.39825907     0.27200
C210        C  0.08522718  0.34642753  0.44349923     0.27200
C211        C  0.08233203  0.47031308  0.02336810     0.27100
C212        C  0.07540293  0.43468378  0.06920744     0.27100
C213        C  0.07623121  0.43575214  0.39962590     0.35800
C214        C  0.08711220  0.46915280  0.44659993     0.35800
C215        C  0.09113919  0.34693712  0.01910455     0.35800
C216        C  0.08226394  0.37996030  0.06695543     0.35800
C217        C  0.08730705  0.35664922  0.37773892    -0.21700
C218        C  0.09373066  0.33460962  0.40613556    -0.21700
C219        C  0.08864521  0.48348125  0.06085546    -0.21700
C220        C  0.08520841  0.46083628  0.08950064    -0.21700
C221        C  0.09183696  0.45954955  0.38087502    -0.22800
C222        C  0.09764042  0.48121868  0.41033446    -0.22800
C223        C  0.10226404  0.33438493  0.05483208    -0.22800
C224        C  0.09797676  0.35596731  0.08471515    -0.22800
C225        C  0.06474250  0.40888526  0.38030499    -0.18100
C226        C  0.09001913  0.33196501  0.98094315    -0.18100
C227        C  0.06953744  0.40559882  0.08732563    -0.18100
C228        C  0.08551313  0.48553236  0.98548428    -0.18100
H229        H  0.09283084  0.35530668  0.34579899     0.14800
H230        H  0.10472897  0.31288060  0.40019986     0.14800
H231        H  0.09610858  0.50666955  0.06709140     0.14800
H232        H  0.09010126  0.46328117  0.12153784     0.14800
H233        H  0.09816318  0.46120408  0.34921958     0.13100
H234        H  0.10913510  0.50296480  0.40582787     0.13100
H235        H  0.11262049  0.31220707  0.05924306     0.13100
H236        H  0.10458546  0.35371720  0.11622719     0.13100
H237        H  0.06236250  0.38794539  0.46025881     0.26300
H238        H  0.06545661  0.42590513  0.00716712     0.26300
N239        N  0.04614817  0.43700876  0.18871601    -0.36400
N240        N  0.04617989  0.37127044  0.19055249    -0.57000
N241        N  0.04593057  0.37433373  0.27853095    -0.36400
N242        N  0.04081774  0.43970396  0.27627810    -0.57000
C243        C  0.04301645  0.42942232  0.14908557     0.27200
C244        C  0.03307948  0.46486969  0.19365098     0.27200
C245        C  0.03537205  0.34536414  0.27291550     0.27100
C246        C  0.04151592  0.38156843  0.31808496     0.27100
C247        C  0.04965420  0.37460767  0.14993403     0.35800
C248        C  0.04132014  0.34111252  0.19773393     0.35800
C249        C  0.03568108  0.46965429  0.26870514     0.35800
C250        C  0.04330280  0.43687712  0.31702299     0.35800
C251        C  0.02649698  0.45190514  0.12924510    -0.21700
C252        C  0.02089988  0.47465191  0.15712918    -0.21700
C253        C  0.02343023  0.33445221  0.30913280    -0.21700
C254        C  0.02690212  0.35745805  0.33742840    -0.21700
C255        C  0.04397688  0.34670714  0.13116809    -0.22800
C256        C  0.04010329  0.32536605  0.16123788    -0.22800
C257        C  0.03303016  0.48556378  0.30494603    -0.22800
C258        C  0.03639907  0.46459060  0.33529735    -0.22800
C259        C  0.05577738  0.40313948  0.13036920    -0.18100
C260        C  0.03326136  0.48264727  0.22954954    -0.18100
C261        C  0.05126490  0.40924055  0.33706112    -0.18100
C262        C  0.03737935  0.32779980  0.23668486    -0.18100
H263        H  0.01988452  0.45218598  0.09760691     0.14800
H264        H  0.00902816  0.49592248  0.15130942     0.14800
H265        H  0.01320116  0.31220240  0.31457077     0.14800
H266        H  0.01999280  0.35644160  0.36888265     0.14800
H267        H  0.04149204  0.34208979  0.09910318     0.13100
H268        H  0.03575279  0.30127138  0.15623261     0.13100
H269        H  0.02880684  0.50963483  0.30977506     0.13100
H270        H  0.03383280  0.46957472  0.36721944     0.13100
H271        H  0.05998377  0.42565041  0.20952867     0.26300
H272        H  0.05897532  0.38712806  0.25828874     0.26300
O273        O  0.93742735  0.77969046  0.47112649    -0.71600
O274        O  0.93076741  0.86677942  0.47247431    -0.71800
O275        O  0.97742110  0.82649755  0.47254672    -0.71700
O276        O  0.89045711  0.82029039  0.47093600    -0.71700
O277        O  0.88886866  0.82095286  0.03891145    -0.71700
O278        O  0.97611577  0.82672805  0.03705020    -0.71700
O279        O  0.92945767  0.86719087  0.03759651    -0.71600
O280        O  0.93580869  0.78003615  0.03830505    -0.71800
V281        V  0.93396738  0.82323645  0.47310415     1.35200
V282        V  0.93249679  0.82363597  0.03667845     1.35200
C283        C  0.93747103  0.76495200  0.00549378     0.77600
C284        C  0.92750096  0.88177740  0.00455978     0.77700
C285        C  0.99047429  0.82773284  0.00375899     0.77600
C286        C  0.87344527  0.82042488  0.00632200     0.77500
O287        O  0.92582047  0.77721635  0.20957564    -0.71600
O288        O  0.92059815  0.86391774  0.21290611    -0.71800
O289        O  0.96678574  0.82360869  0.21159476    -0.71700
O290        O  0.87967486  0.81738582  0.21121863    -0.71700
O291        O  0.87981972  0.81469887  0.27696448    -0.71700
O292        O  0.96656497  0.82339352  0.27753090    -0.71700
O293        O  0.91947134  0.86260045  0.27879614    -0.71600
O294        O  0.92718513  0.77581374  0.27539345    -0.71800
V295        V  0.92322550  0.82053496  0.21261532     1.35200
V296        V  0.92323704  0.81920490  0.27590241     1.35200
C297        C  0.92720471  0.76167510  0.24182750     0.77600
C298        C  0.91938133  0.87803495  0.24635521     0.77700
C299        C  0.98143228  0.82480025  0.24472396     0.77600
C300        C  0.86492438  0.81415021  0.24399064     0.77500
O301        O  0.88257968  0.97399697  0.47143776    -0.71600
O302        O  0.96956543  0.97389011  0.47436956    -0.71800
O303        O  0.92605968  0.93004442  0.47295651    -0.71700
O304        O  0.92711318  0.01737219  0.47331066    -0.71700
O305        O  0.92258865  0.01739927  0.03839581    -0.71700
O306        O  0.92450631  0.93030779  0.03751438    -0.71700
O307        O  0.96690992  0.97535910  0.03670230    -0.71600
O308        O  0.87951149  0.97278644  0.03877630    -0.71800
V309        V  0.92614942  0.97373906  0.47433468     1.35200
V310        V  0.92325586  0.97389771  0.03655773     1.35200
C311        C  0.86690016  0.97324757  0.50367521     0.77600
C312        C  0.98112809  0.97655040  0.00330965     0.77700
C313        C  0.92498185  0.91550590  0.00449647     0.77600
C314        C  0.92707244  0.03221592  0.50636315     0.77500
O315        O  0.91129776  0.01292678  0.28252545    -0.71600
O316        O  0.91774850  0.92601502  0.28061198    -0.71800
O317        O  0.95812171  0.97290792  0.28202342    -0.71700
O318        O  0.87114230  0.96546606  0.28118081    -0.71700
O319        O  0.87110239  0.96710238  0.21538507    -0.71700
O320        O  0.95850192  0.97306441  0.21612712    -0.71700
O321        O  0.91725777  0.92681850  0.21469540    -0.71600
O322        O  0.91212721  0.01385613  0.21672179    -0.71800
V323        V  0.91459073  0.96945450  0.28027388     1.35200
V324        V  0.91476036  0.97027034  0.21699632     1.35200
C325        C  0.91087380  0.02831902  0.25001542     0.77600
C326        C  0.91807031  0.91162965  0.24729713     0.77700
C327        C  0.97319186  0.97385444  0.24929213     0.77600
C328        C  0.85630686  0.96412785  0.24819406     0.77500
O329        O  0.11680248  0.98834056  0.03146563    -0.71600
O330        O  0.03006104  0.98116632  0.03457019    -0.71800
O331        O  0.07670601  0.94129765  0.03419375    -0.71700
O332        O  0.07045459  0.02828391  0.03151873    -0.71700
O333        O  0.07218639  0.02659065  0.47131377    -0.71700
O334        O  0.07792341  0.94013665  0.47309289    -0.71700
O335        O  0.03169127  0.97992119  0.47396334    -0.71600
O336        O  0.11846695  0.98676206  0.47093092    -0.71800
V337        V  0.07343660  0.98474520  0.03166786     1.35200
V338        V  0.07505640  0.98337104  0.47368435     1.35200
C339        C  0.13394345  0.98855737  0.50335355     0.77600
C340        C  0.01464905  0.97940146  0.00215428     0.77700
C341        C  0.07898151  0.92564118  0.50613454     0.77600
C342        C  0.07313952  0.04221974  0.50359524     0.77500
O343        O  0.06376864  0.02282738  0.22025913    -0.71600
O344        O  0.06868090  0.93583171  0.21814372    -0.71800
O345        O  0.02246418  0.97687860  0.21764242    -0.71700
O346        O  0.10985505  0.98139292  0.22091692    -0.71700
O347        O  0.10857235  0.98065383  0.28670808    -0.71700
O348        O  0.02135457  0.97599944  0.28350768    -0.71700
O349        O  0.06756956  0.93487064  0.28401833    -0.71600
O350        O  0.06236413  0.02215598  0.28604388    -0.71800
V351        V  0.06616628  0.97929299  0.22054267     1.35200
V352        V  0.06498787  0.97850333  0.28378991     1.35200
C353        C  0.06174545  0.03740131  0.25338866     0.77600
C354        C  0.06939614  0.92055930  0.25067182     0.77700
C355        C  0.00702583  0.97567943  0.25009532     0.77600
C356        C  0.12418105  0.98075491  0.25436521     0.77500
O357        O  0.08616337  0.79063560  0.03344394    -0.71600
O358        O  0.08032469  0.87770218  0.03469804    -0.71800
O359        O  0.03963357  0.83106385  0.03542924    -0.71700
O360        O  0.12675901  0.83773289  0.03279871    -0.71700
O361        O  0.12673973  0.83847606  0.46842880    -0.71700
O362        O  0.04002338  0.83085373  0.47191077    -0.71700
O363        O  0.08008959  0.87779587  0.47215617    -0.71600
O364        O  0.08687194  0.79105194  0.46845564    -0.71800
V365        V  0.08320378  0.83420788  0.03282885     1.35200
V366        V  0.08343652  0.83445753  0.47156949     1.35200
C367        C  0.08657210  0.77598423  0.00023994     0.77600
C368        C  0.07861243  0.89247856  0.00183024     0.77700
C369        C  0.02421282  0.82999175  0.00289840     0.77600
C370        C  0.14095284  0.84023576  0.99948767     0.77500
O371        O  0.11746288  0.83020889  0.21503117    -0.71600
O372        O  0.03018548  0.82816917  0.21272575    -0.71800
O373        O  0.07271729  0.87286778  0.21588705    -0.71700
O374        O  0.07421063  0.78584248  0.21188759    -0.71700
O375        O  0.07222159  0.78408391  0.27762662    -0.71700
O376        O  0.07293715  0.87134083  0.28176525    -0.71700
O377        O  0.02941071  0.82762678  0.27864563    -0.71600
O378        O  0.11667611  0.82740614  0.28073622    -0.71800
V379        V  0.07376146  0.82930067  0.21518491     1.35200
V380        V  0.07297174  0.82771255  0.27842990     1.35200
C381        C  0.13204652  0.82866774  0.24821278     0.77600
C382        C  0.01500612  0.82716877  0.24533305     0.77700
C383        C  0.07194256  0.88691808  0.24946654     0.77600
C384        C  0.07213630  0.77009240  0.24394542     0.77500
C385        C  0.03324358  0.51667842  0.22538289    -0.03200
C386        C  0.01065778  0.53491572  0.24365007    -0.08900
C387        C  0.01368352  0.56686183  0.24431402    -0.16600
C388        C  0.03909825  0.58094452  0.22616394     0.25500
C389        C  0.06082112  0.56298049  0.20599727    -0.18300
C390        C  0.05789592  0.53106804  0.20555718    -0.07200
C391        C  0.04380365  0.61357379  0.22989388    -0.13600
C392        C  0.04889549  0.64068403  0.23333479    -0.13400
C393        C  0.05568393  0.67299844  0.23646855     0.25400
C394        C  0.05613267  0.68764654  0.27434475    -0.18800
C395        C  0.06234470  0.71911748  0.27702738    -0.07200
C396        C  0.06817549  0.73635114  0.24179670    -0.03300
C397        C  0.06801694  0.72131687  0.20398226    -0.08600
C398        C  0.06185121  0.68990656  0.20138863    -0.16300
H399        H  0.99156490  0.52431915  0.25919555     0.11900
H400        H  0.99665700  0.58048823  0.25992615     0.11200
H401        H  0.08052285  0.57357321  0.19168065     0.11100
H402        H  0.07555145  0.51748452  0.19115374     0.11600
H403        H  0.05142180  0.67481743  0.30174691     0.11700
H404        H  0.06203922  0.73004111  0.30655400     0.11700
H405        H  0.07222154  0.73391400  0.17627072     0.11800
H406        H  0.06162743  0.67885441  0.17192109     0.10600
C407        C  0.03704678  0.29359740  0.24068645    -0.03200
C408        C  0.06053352  0.27924602  0.26281964    -0.08900
C409        C  0.06146956  0.24731005  0.26635581    -0.16600
C410        C  0.03898814  0.22905168  0.24775477     0.25500
C411        C  0.01521646  0.24317217  0.22603927    -0.18300
C412        C  0.01409614  0.27524585  0.22279514    -0.07200
C413        C  0.04096544  0.19593550  0.25030757    -0.13600
C414        C  0.04404312  0.16836936  0.25206894    -0.13400
C415        C  0.04876063  0.13548779  0.25284126     0.25400
C416        C  0.04761489  0.11921076  0.28946140    -0.18800
C417        C  0.05226418  0.08739118  0.28987535    -0.07200
C418        C  0.05807855  0.07131900  0.25360160    -0.03300
C419        C  0.05936015  0.08791297  0.21705871    -0.08600
C420        C  0.05479492  0.11966388  0.21673004    -0.16300
H421        H  0.07839225  0.29286476  0.27705610     0.11900
H422        H  0.07997064  0.23683554  0.28326817     0.11200
H423        H  0.99763223  0.22940878  0.21146612     0.11100
H424        H  0.99551243  0.28573885  0.20607646     0.11600
H425        H  0.04304375  0.13108414  0.31769295     0.11700
H426        H  0.05099776  0.07534189  0.31850428     0.11700
H427        H  0.06376600  0.07632861  0.18858877     0.11800
H428        H  0.05587312  0.13187218  0.18818775     0.10600
C429        C  0.08912953  0.51946466  0.98553202    -0.03200
C430        C  0.06707216  0.53631633  0.47326634    -0.08900
C431        C  0.06860036  0.56829197  0.47558369    -0.16600
C432        C  0.09542690  0.58286599  0.48906872     0.25500
C433        C  0.11844449  0.56578844  0.00020087    -0.18300
C434        C  0.11649581  0.53373007  0.99812191    -0.07200
C435        C  0.09629079  0.61597235  0.49235945    -0.13600
C436        C  0.09555436  0.64367641  0.49449224    -0.13400
C437        C  0.09379166  0.67680317  0.49619832     0.25400
C438        C  0.09299478  0.69299826  0.03410575    -0.18800
C439        C  0.09115974  0.72504590  0.03536493    -0.07200
C440        C  0.08829199  0.74202213  0.99931083    -0.03300
C441        C  0.09481371  0.72615320  0.46210681    -0.08600
C442        C  0.09667366  0.69412062  0.46065972    -0.16300
H443        H  0.04596889  0.52547686  0.46329328     0.11900
H444        H  0.04869718  0.58165622  0.46723611     0.11200
H445        H  0.13950068  0.57648061  0.01061288     0.11100
H446        H  0.13602452  0.52003763  0.00699488     0.11600
H447        H  0.09526914  0.68034462  0.06217500     0.11700
H448        H  0.09209854  0.73652151  0.06450528     0.11700
H449        H  0.09716733  0.73894413  0.43417054     0.11800
H450        H  0.10034750  0.68285664  0.43176227     0.10600
C451        C  0.07058988  0.07637821  0.99645348    -0.03200
C452        C  0.07409849  0.09384956  0.03210700    -0.08900
C453        C  0.08741913  0.12553147  0.53165031    -0.16600
C454        C  0.08263186  0.13996806  0.49424192     0.25500
C455        C  0.07315350  0.12262561  0.46073406    -0.18300
C456        C  0.06915640  0.09096838  0.46424813    -0.07200
C457        C  0.08735137  0.17252030  0.48995638    -0.13600
C458        C  0.09021320  0.19983574  0.48559884    -0.13400
C459        C  0.09132564  0.23265549  0.48105478     0.25400
C460        C  0.11853961  0.24903637  0.48836836    -0.18800
C461        C  0.11858934  0.28113830  0.48717331    -0.07200
C462        C  0.09035621  0.29789715  0.98005484    -0.03300
C463        C  0.06307117  0.28234703  0.97022134    -0.08600
C464        C  0.06453744  0.24842524  0.47093896    -0.16300
H465        H  0.07492274  0.08282810  0.06148136     0.11900
H466        H  0.08050787  0.13876930  0.05780795     0.11200
H467        H  0.06919673  0.13352466  0.43170329     0.11100
H468        H  0.06234622  0.07803776  0.43761410     0.11600
H469        H  0.13949485  0.23705059  0.49580722     0.11700
H470        H  0.13958187  0.29361994  0.49346946     0.11700
H471        H  0.04269033  0.29506087  0.96206300     0.11800
H472        H  0.04019200  0.23891632  0.96471135     0.10600
C473        C  0.37965188  0.94738522  0.25519139    -0.03200
C474        C  0.36599378  0.97525389  0.24416654    -0.08900
C475        C  0.33413096  0.97876391  0.24563838    -0.16600
C476        C  0.31533926  0.95445346  0.25807142     0.25500
C477        C  0.32878462  0.92652226  0.26910505    -0.18300
C478        C  0.36075771  0.92298949  0.26761711    -0.07200
C479        C  0.28237343  0.95839434  0.25914919    -0.13600
C480        C  0.25496458  0.96282677  0.25905297    -0.13400
C481        C  0.22228206  0.96865578  0.25798356     0.25400
C482        C  0.20556833  0.97131382  0.29408352    -0.18800
C483        C  0.17381874  0.97621962  0.29295450    -0.07200
C484        C  0.15822158  0.97855737  0.25563556    -0.03300
C485        C  0.17529707  0.97644920  0.21953074    -0.08600
C486        C  0.20703487  0.97153555  0.22073352    -0.16300
H487        H  0.38011628  0.99439836  0.23466392     0.11900
H488        H  0.32414266  0.00049261  0.23707144     0.11200
H489        H  0.31458546  0.90752409  0.27891800     0.11100
H490        H  0.37081530  0.90144502  0.27664196     0.11600
H491        H  0.21701024  0.96923779  0.32314087     0.11700
H492        H  0.16140039  0.97759081  0.32131457     0.11700
H493        H  0.16404360  0.97798416  0.19030237     0.11800
H494        H  0.21962839  0.96962383  0.19254571     0.10600
C495        C  0.60237296  0.92699462  0.24533779    -0.03200
C496        C  0.61885298  0.90135498  0.25890910    -0.08900
C497        C  0.65108294  0.90182342  0.25896685    -0.16600
C498        C  0.66701684  0.92775427  0.24495868     0.25500
C499        C  0.65055577  0.95277138  0.23006969    -0.18300
C500        C  0.61854381  0.95239714  0.23024037    -0.07200
C501        C  0.70012571  0.92965854  0.24666875    -0.13600
C502        C  0.72750635  0.93431709  0.24739487    -0.13400
C503        C  0.75981865  0.94205706  0.24762858     0.25400
C504        C  0.77675561  0.94062879  0.28370290    -0.18800
C505        C  0.80793149  0.94851994  0.28400835    -0.07200
C506        C  0.82275874  0.95787811  0.24815553    -0.03300
C507        C  0.80552823  0.95945783  0.21208427    -0.08600
C508        C  0.77428252  0.95172087  0.21189893    -0.16300
H509        H  0.60679362  0.88140672  0.27025672     0.11900
H510        H  0.66350679  0.88222849  0.27043400     0.11200
H511        H  0.66250035  0.97288857  0.21899311     0.11100
H512        H  0.60627445  0.97230268  0.21940582     0.11600
H513        H  0.76589359  0.93333397  0.31161248     0.11700
H514        H  0.82055196  0.94680478  0.31222674     0.11700
H515        H  0.81623155  0.96649526  0.18397156     0.11800
H516        H  0.76143311  0.95314954  0.18381248     0.10600
C517        C  0.16764836  0.99272874  0.50225383    -0.03200
C518        C  0.18147451  0.99518168  0.03364278    -0.08900
C519        C  0.21328369  0.99909109  0.03295809    -0.16600
C520        C  0.23151229  0.00241991  0.50032468     0.25500
C521        C  0.21474310  0.00099975  0.46411553    -0.18300
C522        C  0.18301692  0.99619897  0.46503270    -0.07200
C523        C  0.26427236  0.00661259  0.49930040    -0.13600
C524        C  0.29186081  0.00844489  0.49825740    -0.13400
C525        C  0.32482683  0.00756136  0.49668652     0.25400
C526        C  0.33914989  0.98137800  0.48147393    -0.18800
C527        C  0.37102480  0.97929617  0.48170925    -0.07200
C528        C  0.38907716  0.00331943  0.49726658    -0.03300
C529        C  0.37142644  0.02762490  0.01194540    -0.08600
C530        C  0.33933824  0.02901857  0.01097314    -0.16300
H531        H  0.16998585  0.99401171  0.06269856     0.11900
H532        H  0.22578366  0.00071145  0.06132530     0.11200
H533        H  0.22619419  0.00354146  0.43516610     0.11100
H534        H  0.17051892  0.99534456  0.43663270     0.11600
H535        H  0.32564306  0.96240744  0.46980781     0.11700
H536        H  0.38173243  0.95881611  0.46989171     0.11700
H537        H  0.38442046  0.04703530  0.02326801     0.11800
H538        H  0.32788523  0.04932873  0.02210539     0.10600
C539        C  0.60937814  0.98620080  0.49880042    -0.03200
C540        C  0.62490445  0.96057445  0.48333668    -0.08900
C541        C  0.65695598  0.95998618  0.48211034    -0.16600
C542        C  0.67142481  0.98183579  0.00092258     0.25500
C543        C  0.65578522  0.00754863  0.01577274    -0.18300
C544        C  0.62361447  0.00838411  0.01506153    -0.07200
C545        C  0.70454516  0.98019642  0.00308069    -0.13600
C546        C  0.73220494  0.97810739  0.00464607    -0.13400
C547        C  0.76530367  0.97558652  0.00547147     0.25400
C548        C  0.78142354  0.97730186  0.04226375    -0.18800
C549        C  0.81356199  0.97579216  0.04269642    -0.07200
C550        C  0.83276186  0.97398174  0.50196350    -0.03300
C551        C  0.81742561  0.97687367  0.46450048    -0.08600
C552        C  0.78537121  0.97905108  0.46288100    -0.16300
H553        H  0.61208648  0.94085117  0.47254465     0.11900
H554        H  0.66839787  0.93979949  0.47056004     0.11200
H555        H  0.66843208  0.02679410  0.02827286     0.11100
H556        H  0.61187062  0.02829082  0.02689719     0.11600
H557        H  0.76918118  0.98010727  0.07059023     0.11700
H558        H  0.82548932  0.97755352  0.07145393     0.11700
H559        H  0.83022732  0.97785898  0.43641191     0.11800
H560        H  0.77413937  0.98157790  0.43374448     0.10600
C561        C  0.90913323  0.06235063  0.25104899    -0.03200
C562        C  0.90669466  0.07941510  0.21498092    -0.08900
C563        C  0.90505245  0.11150000  0.21623539    -0.16600
C564        C  0.90587990  0.12704037  0.25350290     0.25500
C565        C  0.90852026  0.11022401  0.28946208    -0.18300
C566        C  0.91008854  0.07818697  0.28828872    -0.07200
C567        C  0.90440200  0.16017356  0.25500289    -0.13600
C568        C  0.90407395  0.18788793  0.25685906    -0.13400
C569        C  0.90561192  0.22100315  0.25901981     0.25400
C570        C  0.93408865  0.23547906  0.26408573    -0.18800
C571        C  0.93613655  0.26745122  0.26481995    -0.07200
C572        C  0.90978897  0.28544486  0.26028298    -0.03300
C573        C  0.88111101  0.27100880  0.25605398    -0.08600
C574        C  0.87904382  0.23888572  0.25545666    -0.16300
H575        H  0.90598794  0.06797820  0.18580287     0.11900
H576        H  0.90316129  0.12417131  0.18812913     0.11200
H577        H  0.90937229  0.12188679  0.31849429     0.11100
H578        H  0.91213080  0.06581712  0.31659105     0.11600
H579        H  0.95477107  0.22202782  0.26719585     0.11700
H580        H  0.95833793  0.27827455  0.26864386     0.11700
H581        H  0.86053652  0.28458037  0.25277249     0.11800
H582        H  0.85683358  0.22802639  0.25175634     0.10600
C583        C  0.92776744  0.72783142  0.24020786    -0.03200
C584        C  0.92009653  0.71236919  0.20405448    -0.08900
C585        C  0.91817475  0.68040073  0.20318307    -0.16600
C586        C  0.92412271  0.66349781  0.23830966     0.25500
C587        C  0.93270200  0.67863644  0.27408859    -0.18300
C588        C  0.93441909  0.71062853  0.27511218    -0.07200
C589        C  0.92036022  0.63074063  0.23814024    -0.13600
C590        C  0.91692686  0.60334436  0.23921893    -0.13400
C591        C  0.91389455  0.57058698  0.24182593     0.25400
C592        C  0.89080119  0.55729485  0.26564232    -0.18800
C593        C  0.88928253  0.52541228  0.27015846    -0.07200
C594        C  0.91129877  0.50670847  0.25155167    -0.03300
C595        C  0.93357320  0.52022951  0.22643509    -0.08600
C596        C  0.93485177  0.55192372  0.22159251    -0.16300
H597        H  0.91476125  0.72500726  0.17672488     0.11900
H598        H  0.91153994  0.66891756  0.17532130     0.11200
H599        H  0.93747906  0.66574111  0.30140646     0.11100
H600        H  0.94053339  0.72190556  0.30330321     0.11600
H601        H  0.87420000  0.57157493  0.28101446     0.11700
H602        H  0.87120117  0.51540788  0.28834791     0.11700
H603        H  0.95033990  0.50614167  0.21101182     0.11800
H604        H  0.95253919  0.56189148  0.20265955     0.10600
C605        C  0.93214357  0.06590918  0.50704081    -0.03200
C606        C  0.92817126  0.08215307  0.04400715    -0.08900
C607        C  0.93493223  0.11353811  0.04533686    -0.16600
C608        C  0.94723097  0.12893933  0.50970673     0.25500
C609        C  0.94842987  0.11280858  0.47293740    -0.18300
C610        C  0.94091561  0.08156307  0.47157272    -0.07200
C611        C  0.95439750  0.16134000  0.51104469    -0.13600
C612        C  0.95876628  0.18874037  0.51205061    -0.13400
C613        C  0.96113403  0.22182269  0.51245312     0.25400
C614        C  0.93510577  0.23929884  0.50384777    -0.18800
C615        C  0.93686586  0.27125967  0.50358225    -0.07200
C616        C  0.96468962  0.28634169  0.51190711    -0.03300
C617        C  0.98783477  0.26844367  0.01962077    -0.08600
C618        C  0.98507282  0.23635343  0.02021535    -0.16300
H619        H  0.92491478  0.07003936  0.07231459     0.11900
H620        H  0.93648308  0.12502196  0.07444879     0.11200
H621        H  0.95526503  0.12435399  0.44531555     0.11100
H622        H  0.94253777  0.06953815  0.44288915     0.11600
H623        H  0.91340791  0.22819384  0.49714509     0.11700
H624        H  0.91648848  0.28435290  0.49660848     0.11700
H625        H  0.00984653  0.27903234  0.02579110     0.11800
H626        H  0.00503128  0.22255174  0.02687139     0.10600
C627        C  0.96975497  0.50910191  0.50150933    -0.03200
C628        C  0.94726548  0.52519534  0.47972217    -0.08900
C629        C  0.94758882  0.55725516  0.47845534    -0.16600
C630        C  0.97040092  0.57391790  0.49890816     0.25500
C631        C  0.99193085  0.55852526  0.02114750    -0.18300
C632        C  0.99276935  0.52630941  0.02138758    -0.07200
C633        C  0.96874535  0.60715772  0.50008257    -0.13600
C634        C  0.96487429  0.63468591  0.50093434    -0.13400
C635        C  0.95839240  0.66732769  0.50171387     0.25400
C636        C  0.95474706  0.68393319  0.04199309    -0.18800
C637        C  0.94855270  0.71548455  0.04212879    -0.07200
C638        C  0.94272726  0.73118047  0.00562946    -0.03300
C639        C  0.94749385  0.71490408  0.46609148    -0.08600
C640        C  0.95422098  0.68348507  0.46542168    -0.16300
H641        H  0.92890981  0.51287541  0.46455537     0.11900
H642        H  0.92954608  0.56908902  0.46227868     0.11200
H643        H  0.01021139  0.57134216  0.03572902     0.11100
H644        H  0.01160725  0.51473963  0.03625375     0.11600
H645        H  0.95919693  0.67241254  0.07046031     0.11700
H646        H  0.94859346  0.72764095  0.07080368     0.11700
H647        H  0.94467562  0.72678814  0.43754095     0.11800
H648        H  0.95620887  0.67180140  0.43651835     0.10600
C649        C  0.38956753  0.81561496  0.24786983    -0.03200
C650        C  0.37438229  0.84247232  0.23601176    -0.08900
C651        C  0.34234950  0.84396617  0.23639293    -0.16600
C652        C  0.32493675  0.81863646  0.24870407     0.25500
C653        C  0.33990941  0.79153405  0.25993297    -0.18300
C654        C  0.37205732  0.78993213  0.25923176    -0.07200
C655        C  0.29179414  0.82056337  0.24951200    -0.13600
C656        C  0.26410343  0.82261338  0.24978966    -0.13400
C657        C  0.23097053  0.82490865  0.24961848     0.23800
C658        C  0.21436917  0.82184009  0.28575854    -0.18800
C659        C  0.18225180  0.82338622  0.28542701    -0.07200
C660        C  0.16617458  0.82797245  0.24886371    -0.03300
C661        C  0.18306491  0.83128288  0.21275342    -0.08600
C662        C  0.21517025  0.82981026  0.21317254    -0.16300
H663        H  0.38746598  0.86232775  0.22644595     0.11900
H664        H  0.33115964  0.86490407  0.22707783     0.11200
H665        H  0.32674519  0.77165524  0.26918539     0.11100
H666        H  0.38327060  0.76881263  0.26773934     0.11600
H667        H  0.22623561  0.81805225  0.31419783     0.11700
H668        H  0.16999936  0.82069148  0.31374649     0.11700
H669        H  0.17146110  0.83487697  0.18409979     0.11800
H670        H  0.22765753  0.83228007  0.18497571     0.10600
C671        C  0.60986947  0.79400250  0.24093316    -0.03200
C672        C  0.62773695  0.81839909  0.22630891    -0.08900
C673        C  0.65963411  0.81632758  0.22544897    -0.16600
C674        C  0.67421177  0.78976518  0.23900441     0.25500
C675        C  0.65651489  0.76481587  0.25237041    -0.18300
C676        C  0.62439465  0.76686720  0.25318197    -0.07200
C677        C  0.70729565  0.78911059  0.24042845    -0.13600
C678        C  0.73489896  0.79164341  0.24146461    -0.13400
C679        C  0.76759853  0.79707239  0.24219266     0.25400
C680        C  0.78423355  0.79376343  0.27829672    -0.18800
C681        C  0.81582025  0.79975904  0.27907981    -0.07200
C682        C  0.83124898  0.80906793  0.24366827    -0.03300
C683        C  0.81432121  0.81242534  0.20759009    -0.08600
C684        C  0.78273359  0.80657841  0.20692978    -0.16300
H685        H  0.61690900  0.83934824  0.21627563     0.11900
H686        H  0.67297675  0.83571810  0.21488484     0.11200
H687        H  0.66752128  0.74406473  0.26276356     0.11100
H688        H  0.61094245  0.74767148  0.26405087     0.11600
H689        H  0.77279583  0.78658234  0.30585399     0.11700
H690        H  0.82821389  0.79678928  0.30728383     0.11700
H691        H  0.82549332  0.81956823  0.17984434     0.11800
H692        H  0.77011297  0.80946916  0.17886750     0.10600
C693        C  0.39556367  0.87508034  0.99608210    -0.03200
C694        C  0.37969223  0.85063010  0.97761051    -0.08900
C695        C  0.34767463  0.84988771  0.97698002    -0.16600
C696        C  0.33186193  0.87295511  0.49133746     0.25500
C697        C  0.34808878  0.89846129  0.50619849    -0.18300
C698        C  0.38028658  0.89844061  0.50664707    -0.07200
C699        C  0.29875680  0.87182617  0.49230038    -0.13600
C700        C  0.27127903  0.86809442  0.49331359    -0.13400
C701        C  0.23884228  0.86131604  0.49505827     0.25400
C702        C  0.22262753  0.85397013  0.45960332    -0.18800
C703        C  0.19138988  0.84652302  0.46148683    -0.07200
C704        C  0.17454473  0.84621763  0.99863270    -0.03300
C705        C  0.19129676  0.84923311  0.03499117    -0.08600
C706        C  0.22264177  0.85639803  0.03427692    -0.16300
H707        H  0.39220440  0.83174179  0.96427285     0.11900
H708        H  0.33601336  0.83056554  0.96306498     0.11200
H709        H  0.33588598  0.91813261  0.51788110     0.11100
H710        H  0.39254097  0.91824300  0.51822310     0.11600
H711        H  0.23412652  0.85396460  0.43049209     0.11700
H712        H  0.17933184  0.84116936  0.43359137     0.11700
H713        H  0.18013576  0.84627114  0.06404528     0.11800
H714        H  0.23507536  0.85855308  0.06263176     0.10600
C715        C  0.61813472  0.85548995  0.99820916    -0.03200
C716        C  0.63282317  0.82731845  0.47958995    -0.08900
C717        C  0.66470745  0.82365375  0.47984422    -0.16600
C718        C  0.68252922  0.84867692  0.00182751     0.25500
C719        C  0.66870934  0.87560569  0.01613733    -0.18300
C720        C  0.63672289  0.87908163  0.01408333    -0.07200
C721        C  0.71541639  0.84427877  0.00464897    -0.13600
C722        C  0.74270150  0.83913966  0.00609995    -0.13400
C723        C  0.77527369  0.83250550  0.00671503     0.25400
C724        C  0.79201624  0.83454350  0.04296711    -0.18800
C725        C  0.82374765  0.82936944  0.04314073    -0.07200
C726        C  0.83934553  0.82222368  0.00696560    -0.03300
C727        C  0.82534782  0.82345947  0.46498875    -0.08600
C728        C  0.79357399  0.82818042  0.46369172    -0.16300
H729        H  0.61850623  0.80883831  0.46825717     0.11900
H730        H  0.67444793  0.80247634  0.46864648     0.11200
H731        H  0.68259003  0.89377760  0.02917112     0.11100
H732        H  0.62639165  0.89978706  0.02577951     0.11600
H733        H  0.78064223  0.84063521  0.07102475     0.11700
H734        H  0.83620796  0.83187616  0.07140768     0.11700
H735        H  0.83778152  0.82189615  0.43665755     0.11800
H736        H  0.78219161  0.82994415  0.43455567     0.10600
N737        N  0.53969174  0.85113315  0.54016023    -0.36400
N738        N  0.47456121  0.86075435  0.53937139    -0.57000
N739        N  0.47261479  0.85691426  0.95413362    -0.36400
N740        N  0.53832002  0.85253184  0.95386893    -0.57000
C741        C  0.53439443  0.85345812  0.58054874     0.27200
C742        C  0.56984378  0.85703307  0.53358023     0.27200
C743        C  0.44566273  0.87140943  0.96067536     0.27100
C744        C  0.47878797  0.85905371  0.91397568     0.27100
C745        C  0.47931982  0.86150204  0.57992970     0.35800
C746        C  0.44560984  0.87055977  0.53287052     0.35800
C747        C  0.56862813  0.85751023  0.95999401     0.35800
C748        C  0.53361605  0.85205965  0.91324452     0.35800
C749        C  0.56143573  0.86184774  0.59979577    -0.21700
C750        C  0.58383402  0.86338079  0.57053013    -0.21700
C751        C  0.43489162  0.88325589  0.92446102    -0.21700
C752        C  0.45626706  0.87631599  0.89525833    -0.21700
C753        C  0.45441127  0.87494957  0.59870548    -0.22800
C754        C  0.43258014  0.87940420  0.56934881    -0.22800
C755        C  0.58298393  0.86225461  0.92307221    -0.22800
C756        C  0.56076765  0.85948661  0.89369266    -0.22800
C757        C  0.50542623  0.84900069  0.59981625    -0.18100
C758        C  0.58508693  0.85665117  0.49534386    -0.18100
C759        C  0.50469932  0.84621764  0.89432771    -0.18100
C760        C  0.43064260  0.87073012  0.49466303    -0.18100
H761        H  0.56481450  0.86661623  0.63167429     0.14800
H762        H  0.60757716  0.86903530  0.57628529     0.14800
H763        H  0.41397747  0.89604099  0.91984822     0.14800
H764        H  0.45527258  0.88305567  0.86373570     0.14800
H765        H  0.45176509  0.88016293  0.63057520     0.13100
H766        H  0.40988105  0.88826190  0.57481041     0.13100
H767        H  0.60691252  0.86755500  0.91782659     0.13100
H768        H  0.56430901  0.86276586  0.86156176     0.13100
H769        H  0.52414099  0.84258611  0.51921804     0.26300
H770        H  0.48420268  0.84297379  0.97449053     0.26300
N771        N  0.53469744  0.82445196  0.70330058    -0.36400
N772        N  0.46897739  0.83154562  0.70228856    -0.57000
N773        N  0.46816139  0.83168470  0.79083402    -0.36400
N774        N  0.53273109  0.81877067  0.79130791    -0.57000
C775        C  0.52889617  0.82327480  0.66294299     0.27200
C776        C  0.56067614  0.80833524  0.70986023     0.27200
C777        C  0.43816808  0.82521007  0.78376321     0.27100
C778        C  0.47324100  0.82912135  0.83126102     0.27100
C779        C  0.47445943  0.82973612  0.66194000     0.35800
C780        C  0.43901631  0.82460885  0.70767070     0.35800
C781        C  0.56071777  0.80633019  0.78552037     0.35800
C782        C  0.52757061  0.81874172  0.83177337     0.35800
C783        C  0.55064468  0.80515144  0.64402484    -0.21700
C784        C  0.57116746  0.79646255  0.67342203    -0.21700
C785        C  0.42404389  0.81843461  0.82039220    -0.21700
C786        C  0.44630042  0.81995301  0.85001264    -0.21700
C787        C  0.44850005  0.81893077  0.64213068    -0.22800
C788        C  0.42579326  0.81676857  0.67078848    -0.22800
C789        C  0.57257264  0.79665111  0.82236950    -0.22800
C790        C  0.55095031  0.80321057  0.85126825    -0.22800
C791        C  0.50315962  0.83643420  0.64348396    -0.18100
C792        C  0.57568761  0.80396331  0.74750675    -0.18100
C793        C  0.50217015  0.83312151  0.85083042    -0.18100
C794        C  0.42326229  0.82458320  0.74528158    -0.18100
H795        H  0.55137674  0.79843506  0.61242223     0.14800
H796        H  0.59103243  0.78210415  0.66878280     0.14800
H797        H  0.40038892  0.81204639  0.82544391     0.14800
H798        H  0.44304671  0.81432287  0.88166786     0.14800
H799        H  0.44614333  0.81319953  0.61031630     0.13100
H800        H  0.40245658  0.80929023  0.66529294     0.13100
H801        H  0.59426736  0.78571092  0.82830389     0.13100
H802        H  0.55270262  0.79784676  0.88321749     0.13100
H803        H  0.52328654  0.83823209  0.72408488     0.26300
H804        H  0.48388443  0.84022780  0.77014376     0.26300
N805        N  0.95420340  0.36586931  0.55198821    -0.36400
N806        N  0.95583039  0.36474328  0.96442068    -0.57000
N807        N  0.95497630  0.43040201  0.96383656    -0.36400
N808        N  0.95655341  0.43151183  0.55082657    -0.57000
C809        C  0.96584296  0.33738787  0.54654484     0.27200
C810        C  0.95709652  0.37278614  0.59184715     0.27200
C811        C  0.95998468  0.42296597  0.92453197     0.27100
C812        C  0.96928099  0.45751472  0.97077605     0.27100
C813        C  0.96174425  0.33481607  0.97094672     0.35800
C814        C  0.95433306  0.36853555  0.92373177     0.35800
C815        C  0.95167326  0.42822001  0.59122741     0.35800
C816        C  0.96135322  0.46173833  0.54375321     0.35800
C817        C  0.97671434  0.32642060  0.58321905    -0.21700
C818        C  0.97202098  0.34911377  0.61146190    -0.21700
C819        C  0.97911563  0.44451481  0.90695222    -0.21700
C820        C  0.98434599  0.46684967  0.93585965    -0.21700
C821        C  0.96615628  0.31986876  0.93437879    -0.22800
C822        C  0.96240977  0.34140825  0.90457355    -0.22800
C823        C  0.95600825  0.45643764  0.60997557    -0.22800
C824        C  0.96094709  0.47765552  0.58005629    -0.22800
C825        C  0.96391184  0.32075467  0.00939091    -0.18100
C826        C  0.94553838  0.39956504  0.61085686    -0.18100
C827        C  0.96723816  0.47503377  0.00683334    -0.18100
C828        C  0.94759987  0.39693200  0.90467565    -0.18100
H829        H  0.98730784  0.30454178  0.58916664     0.14800
H830        H  0.97837288  0.34805100  0.64315505     0.14800
H831        H  0.98736317  0.44443561  0.87607444     0.14800
H832        H  0.99769310  0.48757120  0.93174608     0.14800
H833        H  0.97243916  0.29616005  0.92973726     0.13100
H834        H  0.96596982  0.33746874  0.87254487     0.13100
H835        H  0.95736384  0.46147171  0.64201360     0.13100
H836        H  0.96493689  0.50182772  0.58503365     0.13100
H837        H  0.94132936  0.37832791  0.53124493     0.26300
H838        H  0.93955265  0.41933780  0.98302640     0.26300
N839        N  0.92299367  0.43141046  0.80157515    -0.36400
N840        N  0.92650161  0.36482631  0.80275515    -0.57000
N841        N  0.92706085  0.36399768  0.71383277    -0.36400
N842        N  0.92395653  0.43044261  0.71272935    -0.57000
C843        C  0.92788663  0.42764258  0.84191594     0.27200
C844        C  0.91817838  0.46146950  0.79414970     0.27200
C845        C  0.91746805  0.33491226  0.72075132     0.27100
C846        C  0.92571703  0.36907885  0.67331950     0.27100
C847        C  0.92219257  0.37196234  0.84227952     0.35800
C848        C  0.91452238  0.33662926  0.79671380     0.35800
C849        C  0.90973451  0.45732786  0.71930861     0.35800
C850        C  0.91942746  0.42337631  0.67332746     0.35800
C851        C  0.92370092  0.45590914  0.86062884    -0.21700
C852        C  0.91888137  0.47725468  0.83061130    -0.21700
C853        C  0.90997576  0.32128953  0.68391607    -0.21700
C854        C  0.91428954  0.34307173  0.65425890    -0.21700
C855        C  0.90595992  0.34859250  0.86107677    -0.22800
C856        C  0.90202137  0.32578648  0.83257359    -0.22800
C857        C  0.89533181  0.46702794  0.68407600    -0.22800
C858        C  0.90066701  0.44491704  0.65518262    -0.22800
C859        C  0.93384091  0.39886830  0.86150553    -0.18100
C860        C  0.91187504  0.47457262  0.75553998    -0.18100
C861        C  0.93232105  0.39758103  0.65414127    -0.18100
C862        C  0.91414756  0.32060464  0.75927765    -0.18100
H863        H  0.92236823  0.46092333  0.89266357     0.14800
H864        H  0.91504474  0.50140536  0.83566687     0.14800
H865        H  0.90109889  0.29843600  0.67883022     0.14800
H866        H  0.90884076  0.34025987  0.62242554     0.14800
H867        H  0.89834281  0.34783641  0.89229346     0.13100
H868        H  0.89043093  0.30412259  0.83733919     0.13100
H869        H  0.88232582  0.48783409  0.67978626     0.13100
H870        H  0.89254992  0.44506155  0.62413438     0.13100
H871        H  0.92292034  0.41440409  0.77991835     0.26300
H872        H  0.93680175  0.37885620  0.73481152     0.26300
N873        N  0.46459827  0.98153787  0.54354102    -0.36400
N874        N  0.53007538  0.97846358  0.54429253    -0.57000
N875        N  0.52769619  0.97166900  0.95679353    -0.36400
N876        N  0.46288036  0.98167275  0.95669437    -0.57000
C877        C  0.47024141  0.98287024  0.58386925     0.27200
C878        C  0.43751751  0.99574628  0.53674941     0.27200
C879        C  0.55682937  0.98138363  0.96333473     0.27100
C880        C  0.52206950  0.97403181  0.91645623     0.27100
C881        C  0.52521348  0.97772136  0.58487989     0.35800
C882        C  0.56024978  0.98436110  0.53859865     0.35800
C883        C  0.43577342  0.99567009  0.96256798     0.35800
C884        C  0.46816412  0.98241470  0.91635229     0.35800
C885        C  0.44710041  0.99913375  0.60280255    -0.21700
C886        C  0.42596007  0.00631389  0.57338589    -0.21700
C887        C  0.56969184  0.99031236  0.92671057    -0.21700
C888        C  0.54757230  0.98629696  0.89732929    -0.21700
C889        C  0.55195953  0.98620726  0.60484851    -0.22800
C890        C  0.57434544  0.98920557  0.57578556    -0.22800
C891        C  0.42471943  0.00710702  0.92622662    -0.22800
C892        C  0.44592708  0.99973670  0.89714344    -0.22800
C893        C  0.49646450  0.97059986  0.60336342    -0.18100
C894        C  0.42034767  0.99787544  0.00001173    -0.18100
C895        C  0.49339557  0.96807741  0.89746054    -0.18100
C896        C  0.57247781  0.98244883  0.00115045    -0.18100
H897        H  0.44561741  0.00534527  0.63453676     0.14800
H898        H  0.40495587  0.01867851  0.57870809     0.14800
H899        H  0.59238846  0.99972272  0.92185946     0.14800
H900        H  0.54974564  0.99246968  0.86568475     0.14800
H901        H  0.55513290  0.98992162  0.63704728     0.13100
H902        H  0.59810126  0.99489041  0.58160411     0.13100
H903        H  0.40385741  0.01994725  0.92141786     0.13100
H904        H  0.44482448  0.00589882  0.86539482     0.13100
H905        H  0.47701272  0.96851984  0.52296650     0.26300
H906        H  0.51323117  0.96124385  0.97768914     0.26300
N907        N  0.52365434  0.94438489  0.79467992    -0.36400
N908        N  0.52408778  0.94285001  0.70643422    -0.57000
N909        N  0.45916771  0.95303299  0.70534341    -0.36400
N910        N  0.45809615  0.94823768  0.79370949    -0.57000
C911        C  0.55160137  0.93183159  0.78857777     0.27200
C912        C  0.51765544  0.94280321  0.83486512     0.27200
C913        C  0.46506205  0.95114049  0.66500290     0.27100
C914        C  0.42927810  0.94545668  0.71099710     0.27100
C915        C  0.55251155  0.93172516  0.71290759     0.35800
C916        C  0.51989544  0.94347635  0.66579919     0.35800
C917        C  0.46234323  0.94947484  0.83446952     0.35800
C918        C  0.42753849  0.94546000  0.78706740     0.35800
C919        C  0.56336713  0.92190048  0.82529129    -0.21700
C920        C  0.54153124  0.92789500  0.85422748    -0.21700
C921        C  0.43876475  0.94133877  0.64504859    -0.21700
C922        C  0.41619131  0.93813038  0.67383602    -0.21700
C923        C  0.56569871  0.92325262  0.67644644    -0.22800
C924        C  0.54451862  0.92957296  0.64677036    -0.22800
C925        C  0.43451400  0.94438491  0.85354809    -0.22800
C926        C  0.41248713  0.94307664  0.82392710    -0.22800
C927        C  0.56716950  0.92970108  0.75106420    -0.18100
C928        C  0.49117862  0.95485019  0.85408688    -0.18100
C929        C  0.41297843  0.94563623  0.74837575    -0.18100
C930        C  0.49406991  0.95676845  0.64636912    -0.18100
H931        H  0.58514684  0.91089773  0.83072964     0.14800
H932        H  0.54317418  0.92202316  0.88600906     0.14800
H933        H  0.43609649  0.93662542  0.61303486     0.14800
H934        H  0.39285662  0.93074563  0.66809291     0.14800
H935        H  0.58802524  0.91309593  0.67183848     0.13100
H936        H  0.54722003  0.92493242  0.61473423     0.13100
H937        H  0.43019272  0.94199720  0.88561969     0.13100
H938        H  0.38821580  0.94063709  0.82953721     0.13100
H939        H  0.51112391  0.95698651  0.77385758     0.26300
H940        H  0.47388226  0.96244008  0.72682688     0.26300
N941        N  0.07459837  0.37597888  0.93826125    -0.36400
N942        N  0.07336339  0.44225311  0.94014557    -0.57000
N943        N  0.07730535  0.43970472  0.52849203    -0.36400
N944        N  0.07975563  0.37399983  0.52642163    -0.57000
C945        C  0.07453962  0.38188641  0.89793467     0.27200
C946        C  0.08569523  0.34734362  0.94350271     0.27200
C947        C  0.08616736  0.46913138  0.52269872     0.27100
C948        C  0.07821645  0.43387302  0.56879666     0.27100
C949        C  0.07623830  0.43697503  0.89988579     0.35800
C950        C  0.08500348  0.47047243  0.94735455     0.35800
C951        C  0.09041633  0.34560536  0.51896650     0.35800
C952        C  0.08257732  0.37891686  0.56673821     0.35800
C953        C  0.08671967  0.35694308  0.87743313    -0.21700
C954        C  0.09303803  0.33493629  0.90603926    -0.21700
C955        C  0.09290571  0.48223648  0.56011274    -0.21700
C956        C  0.08869953  0.45982237  0.58895658    -0.21700
C957        C  0.09212184  0.46096218  0.88201635    -0.22800
C958        C  0.09658108  0.48270633  0.91173901    -0.22800
C959        C  0.10167465  0.33294666  0.55453014    -0.22800
C960        C  0.09800492  0.35468620  0.58439535    -0.22800
C961        C  0.06563500  0.41009994  0.87986492    -0.18100
C962        C  0.08958361  0.33090191  0.48068178    -0.18100
C963        C  0.07102750  0.40511957  0.58703498    -0.18100
C964        C  0.08889270  0.48430394  0.48469071    -0.18100
H965        H  0.09151971  0.35503672  0.84534248     0.14800
H966        H  0.10309697  0.31275334  0.90010170     0.14800
H967        H  0.10083212  0.50528882  0.56622833     0.14800
H968        H  0.09335676  0.46230699  0.62105058     0.14800
H969        H  0.09940562  0.46272236  0.85073416     0.13100
H970        H  0.10791200  0.50461128  0.90788161     0.13100
H971        H  0.11191915  0.31067263  0.55867161     0.13100
H972        H  0.10494458  0.35248826  0.61579010     0.13100
H973        H  0.06447347  0.38957101  0.96022481     0.26300
H974        H  0.06817605  0.42509556  0.50686224     0.26300
N975        N  0.04711683  0.43783493  0.68764191    -0.36400
N976        N  0.04578253  0.37223966  0.69045894    -0.57000
N977        N  0.04588662  0.37579714  0.77834555    -0.36400
N978        N  0.04233135  0.44127096  0.77525160    -0.57000
C979        C  0.04459040  0.43013798  0.64796774     0.27200
C980        C  0.03440204  0.46591457  0.69204909     0.27200
C981        C  0.03391313  0.34733789  0.77306400     0.27100
C982        C  0.04178162  0.38347675  0.81779595     0.27100
C983        C  0.04996450  0.37512169  0.64987603     0.35800
C984        C  0.04016086  0.34224931  0.69803801     0.35800
C985        C  0.03679271  0.47111997  0.76725830     0.35800
C986        C  0.04495341  0.43863978  0.81605455     0.35800
C987        C  0.02888966  0.45286130  0.62742683    -0.21700
C988        C  0.02306789  0.47574310  0.65503322    -0.21700
C989        C  0.02142518  0.33727144  0.80939245    -0.21700
C990        C  0.02604887  0.36024598  0.83743497    -0.21700
C991        C  0.04398737  0.34714571  0.63148460    -0.22800
C992        C  0.03925153  0.32618422  0.66178314    -0.22800
C993        C  0.03404751  0.48719620  0.80335248    -0.22800
C994        C  0.03783339  0.46645053  0.83397940    -0.22800
C995        C  0.05690257  0.40335400  0.62992983    -0.18100
C996        C  0.03425056  0.48388654  0.72786468    -0.18100
C997        C  0.05244680  0.41088496  0.83640818    -0.18100
C998        C  0.03521665  0.32939602  0.73710440    -0.18100
H999        H  0.02274726  0.45311858  0.59561369     0.14800
H1000       H  0.01160437  0.49714980  0.64867309     0.14800
H1001       H  0.01010090  0.31559212  0.81507465     0.14800
H1002       H  0.01907146  0.35983762  0.86888997     0.14800
H1003       H  0.04167073  0.34223246  0.59948761     0.13100
H1004       H  0.03454499  0.30213711  0.65699070     0.13100
H1005       H  0.02941445  0.51122054  0.80790338     0.13100
H1006       H  0.03502571  0.47160898  0.86581080     0.13100
H1007       H  0.06035994  0.42627293  0.70890480     0.26300
H1008       H  0.05950661  0.38787840  0.75798586     0.26300
O1009       O  0.93528959  0.77961168  0.97249499    -0.71600
O1010       O  0.92808435  0.86671462  0.97172121    -0.71800
O1011       O  0.97514608  0.82670914  0.97115448    -0.71700
O1012       O  0.88798947  0.81987660  0.97310625    -0.71700
O1013       O  0.88972526  0.81983001  0.53674047    -0.71700
O1014       O  0.97716405  0.82598117  0.53844816    -0.71700
O1015       O  0.93027449  0.86635105  0.53836153    -0.71600
O1016       O  0.93693784  0.77912986  0.53692681    -0.71800
V1017       V  0.93161090  0.82316709  0.97341435     1.35200
V1018       V  0.93347487  0.82275435  0.53636782     1.35200
C1019       C  0.93916850  0.76454356  0.50377644     0.77600
C1020       C  0.92930877  0.88140287  0.50560111     0.77700
C1021       C  0.99213074  0.82722499  0.50561674     0.77600
C1022       C  0.87509956  0.82005071  0.50346902     0.77500
O1023       O  0.92494251  0.77855524  0.71006833    -0.71600
O1024       O  0.91928022  0.86539751  0.71281916    -0.71800
O1025       O  0.96557897  0.82514417  0.71073937    -0.71700
O1026       O  0.87863373  0.81852709  0.71213606    -0.71700
O1027       O  0.87949823  0.81663644  0.77792792    -0.71700
O1028       O  0.96621641  0.82488393  0.77668298    -0.71700
O1029       O  0.91924166  0.86426449  0.77873897    -0.71600
O1030       O  0.92650218  0.77769606  0.77589129    -0.71800
V1031       V  0.92213254  0.82194395  0.71270760     1.35200
V1032       V  0.92285473  0.82095723  0.77601213     1.35200
C1033       C  0.92628504  0.76328270  0.74257913     0.77600
C1034       C  0.91849064  0.87959313  0.74627898     0.77700
C1035       C  0.98063885  0.82616290  0.74351587     0.77600
C1036       C  0.86428184  0.81556082  0.74524181     0.77500
O1037       O  0.87877781  0.97286495  0.97295145    -0.71600
O1038       O  0.96580697  0.97564971  0.97078432    -0.71800
O1039       O  0.92365557  0.93040540  0.97162013    -0.71700
O1040       O  0.92166179  0.01787707  0.97257729    -0.71700
O1041       O  0.92425256  0.01729359  0.53903009    -0.71700
O1042       O  0.92644561  0.93003104  0.53885419    -0.71700
O1043       O  0.96875502  0.97550281  0.54025634    -0.71600
O1044       O  0.88119334  0.97237591  0.53719003    -0.71800
V1045       V  0.92236148  0.97413801  0.97327409     1.35200
V1046       V  0.92503807  0.97371027  0.53759073     1.35200
C1047       C  0.86418042  0.97261378  0.00608740     0.77600
C1048       C  0.98393818  0.97585688  0.50755756     0.77700
C1049       C  0.92701085  0.91516842  0.50585430     0.77600
C1050       C  0.92292239  0.03256782  0.00575479     0.77500
O1051       O  0.91073202  0.01420647  0.78409992    -0.71600
O1052       O  0.91648196  0.92731057  0.78097876    -0.71800
O1053       O  0.95719772  0.97388336  0.78189453    -0.71700
O1054       O  0.87023648  0.96727839  0.78345014    -0.71700
O1055       O  0.86915332  0.96823882  0.71764073    -0.71700
O1056       O  0.95644879  0.97532545  0.71602805    -0.71700
O1057       O  0.91586427  0.92853553  0.71507299    -0.71600
O1058       O  0.90953128  0.01540234  0.71830223    -0.71800
V1059       V  0.91365141  0.97076247  0.78129131     1.35200
V1060       V  0.91278268  0.97191896  0.71802340     1.35200
C1061       C  0.90920462  0.02969906  0.75174773     0.77600
C1062       C  0.91687595  0.91315275  0.74747958     0.77700
C1063       C  0.97168696  0.97558129  0.74877801     0.77600
C1064       C  0.85486455  0.96582658  0.75092234     0.77500
O1065       O  0.11977340  0.98724834  0.53676443    -0.71600
O1066       O  0.03271291  0.98138502  0.53986095    -0.71800
O1067       O  0.07876837  0.94070043  0.53901895    -0.71700
O1068       O  0.07416274  0.02806062  0.53709684    -0.71700
O1069       O  0.06967610  0.02681883  0.96569784    -0.71700
O1070       O  0.07487043  0.94017072  0.96830291    -0.71700
O1071       O  0.02871043  0.98043302  0.96865629    -0.71600
O1072       O  0.11567205  0.98651371  0.96565912    -0.71800
V1073       V  0.07627936  0.98433155  0.53697490     1.35200
V1074       V  0.07221101  0.98349461  0.96837877     1.35200
C1075       C  0.13105167  0.98892184  0.99810418     0.77600
C1076       C  0.01746562  0.97908861  0.50732215     0.77700
C1077       C  0.07666317  0.92598987  0.00156757     0.77600
C1078       C  0.06983476  0.04244402  0.99804128     0.77500
O1079       O  0.06188851  0.02419539  0.71621723    -0.71600
O1080       O  0.06619136  0.93719387  0.71510910    -0.71800
O1081       O  0.02030431  0.97848077  0.71564436    -0.71700
O1082       O  0.10765798  0.98231963  0.71579194    -0.71700
O1083       O  0.10784859  0.98181752  0.78160861    -0.71700
O1084       O  0.02044917  0.97818159  0.78154205    -0.71700
O1085       O  0.06623108  0.93654505  0.78101130    -0.71600
O1086       O  0.06200496  0.02398306  0.78203348    -0.71800
V1087       V  0.06401174  0.98062815  0.71702001     1.35200
V1088       V  0.06412734  0.98024264  0.78029512     1.35200
C1089       C  0.06066542  0.03902128  0.74921976     0.77600
C1090       C  0.06746005  0.92207921  0.74772634     0.77700
C1091       C  0.00549670  0.97756366  0.74859863     0.77600
C1092       C  0.12272629  0.98148666  0.74864306     0.77500
O1093       O  0.08791929  0.78970531  0.53425115    -0.71600
O1094       O  0.08214382  0.87676556  0.53801993    -0.71800
O1095       O  0.04133794  0.83007419  0.53779454    -0.71700
O1096       O  0.12860028  0.83696557  0.53419659    -0.71700
O1097       O  0.12551095  0.83849045  0.96699349    -0.71700
O1098       O  0.03847382  0.83090786  0.96953191    -0.71700
O1099       O  0.07863837  0.87775861  0.96879243    -0.71600
O1100       O  0.08533798  0.79113191  0.96761737    -0.71800
V1101       V  0.08498303  0.83329212  0.53481895     1.35200
V1102       V  0.08202637  0.83448843  0.96954545     1.35200
C1103       C  0.08828872  0.77546461  0.50072782     0.77600
C1104       C  0.08042016  0.89205603  0.50559057     0.77700
C1105       C  0.02585115  0.82946324  0.50527546     0.77600
C1106       C  0.14244624  0.83991316  0.50065248     0.77500
O1107       O  0.11595491  0.83243269  0.70955619    -0.71600
O1108       O  0.02871557  0.82989053  0.71011795    -0.71800
O1109       O  0.07091132  0.87470178  0.71262556    -0.71700
O1110       O  0.07297235  0.78785695  0.70693729    -0.71700
O1111       O  0.07287975  0.78534473  0.77268577    -0.71700
O1112       O  0.07173947  0.87266019  0.77847141    -0.71700
O1113       O  0.02915999  0.82809451  0.77601205    -0.71600
O1114       O  0.11635499  0.82960590  0.77527006    -0.71800
V1115       V  0.07227486  0.83123206  0.71112534     1.35200
V1116       V  0.07266530  0.82902035  0.77435318     1.35200
C1117       C  0.13112655  0.83101457  0.74228435     0.77600
C1118       C  0.01416783  0.82829100  0.74317797     0.77700
C1119       C  0.07023067  0.88847043  0.74638912     0.77600
C1120       C  0.07212598  0.77171649  0.73872720     0.77500
C1121       C  0.03414788  0.51795307  0.72311547    -0.03200
C1122       C  0.01172027  0.53650288  0.74125125    -0.08900
C1123       C  0.01465407  0.56849335  0.74069076    -0.16600
C1124       C  0.03970799  0.58230812  0.72128170     0.25500
C1125       C  0.06108161  0.56399945  0.70103565    -0.18300
C1126       C  0.05833710  0.53208345  0.70195865    -0.07200
C1127       C  0.04458260  0.61500658  0.72399667    -0.13600
C1128       C  0.04993352  0.64212185  0.72695265    -0.13400
C1129       C  0.05682865  0.67444594  0.73013735     0.25400
C1130       C  0.06050959  0.68834710  0.76822601    -0.18800
C1131       C  0.06641433  0.71987093  0.77115332    -0.07200
C1132       C  0.06876109  0.73791913  0.73595697    -0.03300
C1133       C  0.06560232  0.72360766  0.69784154    -0.08600
C1134       C  0.05967079  0.69215238  0.69499988    -0.16300
H1135       H  0.99274942  0.52618678  0.75739374     0.11900
H1136       H  0.99784512  0.58238591  0.75630237     0.11200
H1137       H  0.08045128  0.57434832  0.68565928     0.11100
H1138       H  0.07577714  0.51830941  0.68741446     0.11600
H1139       H  0.05845058  0.67489942  0.79567449     0.11700
H1140       H  0.06857765  0.73019257  0.80093266     0.11700
H1141       H  0.06710770  0.73682383  0.67015189     0.11800
H1142       H  0.05695228  0.68170733  0.66535125     0.10600
C1143       C  0.03339612  0.29521412  0.74157420    -0.03200
C1144       C  0.05572226  0.28015447  0.76495674    -0.08900
C1145       C  0.05612163  0.24815401  0.76757569    -0.16600
C1146       C  0.03430859  0.23048227  0.74672510     0.25500
C1147       C  0.01123620  0.24531135  0.72449137    -0.18300
C1148       C  0.01057088  0.27747759  0.72228551    -0.07200
C1149       C  0.03662268  0.19729024  0.74715123    -0.13600
C1150       C  0.04045313  0.16976216  0.74762648    -0.13400
C1151       C  0.04615017  0.13698831  0.74819685     0.25400
C1152       C  0.04593263  0.12081292  0.78491250    -0.18800
C1153       C  0.05127203  0.08911297  0.78543920    -0.07200
C1154       C  0.05685265  0.07296668  0.74917291    -0.03300
C1155       C  0.05739310  0.08946175  0.71248381    -0.08600
C1156       C  0.05215063  0.12115261  0.71204141    -0.16300
H1157       H  0.07335026  0.29324645  0.78050219     0.11900
H1158       H  0.07394917  0.23715594  0.78515379     0.11200
H1159       H  0.99400255  0.23203649  0.70846069     0.11100
H1160       H  0.99267784  0.28849987  0.70486009     0.11600
H1161       H  0.04145657  0.13267656  0.81317734     0.11700
H1162       H  0.05057865  0.07717554  0.81418168     0.11700
H1163       H  0.06162718  0.07782593  0.68400185     0.11800
H1164       H  0.05258362  0.13326725  0.68340065     0.10600
C1165       C  0.09228023  0.51834187  0.48460885    -0.03200
C1166       C  0.06425616  0.53766408  0.97362257    -0.08900
C1167       C  0.06620029  0.56959991  0.97572495    -0.16600
C1168       C  0.09313934  0.58380809  0.98946016     0.25500
C1169       C  0.12101097  0.56508710  0.49948201    -0.18300
C1170       C  0.11949969  0.53297218  0.49712564    -0.07200
C1171       C  0.09434877  0.61680152  0.99293543    -0.13600
C1172       C  0.09375082  0.64444380  0.99529355    -0.13400
C1173       C  0.09192810  0.67747882  0.99685194     0.25400
C1174       C  0.08888727  0.69184019  0.53323574    -0.18800
C1175       C  0.08717016  0.72390100  0.53478257    -0.07200
C1176       C  0.09017642  0.74146185  0.49922435    -0.03300
C1177       C  0.08696581  0.72618303  0.96209210    -0.08600
C1178       C  0.08874872  0.69419710  0.96091709    -0.16300
H1179       H  0.04313678  0.52704447  0.96331985     0.11900
H1180       H  0.04654030  0.58321223  0.96706983     0.11200
H1181       H  0.14198092  0.57600985  0.50977994     0.11100
H1182       H  0.13925757  0.51952218  0.50576008     0.11600
H1183       H  0.08640855  0.67879127  0.56096032     0.11700
H1184       H  0.08335067  0.73492978  0.56378876     0.11700
H1185       H  0.08455371  0.73850962  0.93380547     0.11800
H1186       H  0.08768627  0.68250121  0.93191576     0.10600
C1187       C  0.07444449  0.07611676  0.50145306    -0.03200
C1188       C  0.08328607  0.09378435  0.53529536    -0.08900
C1189       C  0.07740483  0.12574388  0.03007494    -0.16600
C1190       C  0.07720280  0.14058526  0.99243871     0.25500
C1191       C  0.07305404  0.12343189  0.95691253    -0.18300
C1192       C  0.06978982  0.09158313  0.95885807    -0.07200
C1193       C  0.08159888  0.17331621  0.99005334    -0.13600
C1194       C  0.08491701  0.20071545  0.98722424    -0.13400
C1195       C  0.08732560  0.23356705  0.98352677     0.25400
C1196       C  0.11498154  0.24883857  0.99208103    -0.18800
C1197       C  0.11658225  0.28090163  0.99002945    -0.07200
C1198       C  0.09130617  0.29697305  0.47911624    -0.03300
C1199       C  0.06453426  0.28037661  0.46993049    -0.08600
C1200       C  0.06158165  0.25042543  0.97189666    -0.16300
H1201       H  0.08777340  0.08298413  0.56423034     0.11900
H1202       H  0.09466701  0.13874274  0.55785541     0.11200
H1203       H  0.07273908  0.13463623  0.92762002     0.11100
H1204       H  0.06716608  0.07882276  0.93084264     0.11600
H1205       H  0.13515177  0.23601450  0.00076036     0.11700
H1206       H  0.13797114  0.29246397  0.99701670     0.11700
H1207       H  0.04342857  0.29227341  0.46291048     0.11800
H1208       H  0.04347429  0.23603718  0.46467540     0.10600
C1209       C  0.37864891  0.94777734  0.74638164    -0.03200
C1210       C  0.36505130  0.97351843  0.72821880    -0.08900
C1211       C  0.33311379  0.97691323  0.72763690    -0.16600
C1212       C  0.31413391  0.95468041  0.74529778     0.25500
C1213       C  0.32745533  0.92867860  0.76283755    -0.18300
C1214       C  0.35944272  0.92514116  0.76312477    -0.07200
C1215       C  0.28115472  0.95895471  0.74607564    -0.13600
C1216       C  0.25369399  0.96321203  0.74682068    -0.13400
C1217       C  0.22088965  0.96865332  0.74741521     0.25400
C1218       C  0.20531057  0.97206228  0.78432721    -0.18800
C1219       C  0.17352133  0.97697193  0.78482050    -0.07200
C1220       C  0.15675680  0.97864333  0.74833102    -0.03300
C1221       C  0.17265191  0.97545667  0.71141124    -0.08600
C1222       C  0.20439325  0.97050272  0.71099260    -0.16300
H1223       H  0.37927961  0.99126965  0.71501509     0.11900
H1224       H  0.32324846  0.99711729  0.71386796     0.11200
H1225       H  0.31314081  0.91123137  0.77658098     0.11100
H1226       H  0.36925831  0.90507562  0.77722173     0.11600
H1227       H  0.21769458  0.97069510  0.81278015     0.11700
H1228       H  0.16202056  0.97906719  0.81377672     0.11700
H1229       H  0.16048133  0.97631905  0.68277770     0.11800
H1230       H  0.21603615  0.96789977  0.68219120     0.10600
C1231       C  0.60123328  0.92880875  0.75167196    -0.03200
C1232       C  0.61764373  0.90199867  0.76041533    -0.08900
C1233       C  0.64986413  0.90264775  0.76152781    -0.16600
C1234       C  0.66574407  0.93011621  0.75394750     0.25500
C1235       C  0.64928960  0.95672568  0.74521565    -0.18300
C1236       C  0.61732595  0.95607099  0.74402042    -0.07200
C1237       C  0.69882822  0.93177827  0.75511532    -0.13600
C1238       C  0.72615274  0.93661901  0.75499505    -0.13400
C1239       C  0.75832966  0.94467963  0.75403230     0.25400
C1240       C  0.77543781  0.94571227  0.78998459    -0.18800
C1241       C  0.80662246  0.95343445  0.78903305    -0.07200
C1242       C  0.82125504  0.96017912  0.75203434    -0.03300
C1243       C  0.80375172  0.95968945  0.71612951    -0.08600
C1244       C  0.77250605  0.95206578  0.71717849    -0.16300
H1245       H  0.60548879  0.88089478  0.76685165     0.11900
H1246       H  0.66231815  0.88192624  0.76858218     0.11200
H1247       H  0.66120997  0.97809741  0.73941775     0.11100
H1248       H  0.60501139  0.97697895  0.73741500     0.11600
H1249       H  0.76473781  0.94032446  0.81875103     0.11700
H1250       H  0.81940961  0.95354844  0.81722306     0.11700
H1251       H  0.81427952  0.96481196  0.68718803     0.11800
H1252       H  0.75946553  0.95167215  0.68917473     0.10600
C1253       C  0.16476383  0.99274667  0.99721753    -0.03200
C1254       C  0.18471660  0.99412753  0.53848364    -0.08900
C1255       C  0.21644126  0.99888934  0.53748253    -0.16600
C1256       C  0.22881144  0.00068806  0.99592541     0.25500
C1257       C  0.21239418  0.99843209  0.95949761    -0.18300
C1258       C  0.18054530  0.99450207  0.96010032    -0.07200
C1259       C  0.26166366  0.00374559  0.99544518    -0.13600
C1260       C  0.28927610  0.00496310  0.99554866    -0.13400
C1261       C  0.32224026  0.00423463  0.99576717     0.25400
C1262       C  0.33727691  0.97830282  0.98101201    -0.18800
C1263       C  0.36917945  0.97682360  0.98223395    -0.07200
C1264       C  0.38649810  0.00114279  0.99846429    -0.03300
C1265       C  0.37473051  0.03021128  0.51080087    -0.08600
C1266       C  0.34264645  0.03218344  0.51090779    -0.16300
H1267       H  0.17355842  0.99159460  0.56761299     0.11900
H1268       H  0.22921410  0.99976582  0.56568780     0.11200
H1269       H  0.22421666  0.99955172  0.93065368     0.11100
H1270       H  0.16830283  0.99282728  0.93156517     0.11600
H1271       H  0.32433336  0.95913955  0.96878248     0.11700
H1272       H  0.38049209  0.95661228  0.97056602     0.11700
H1273       H  0.38829643  0.04937071  0.52170983     0.11800
H1274       H  0.33177063  0.05271769  0.52233515     0.10600
C1275       C  0.60673303  0.98327621  0.00003603    -0.03200
C1276       C  0.62260128  0.95806808  0.98398132    -0.08900
C1277       C  0.65467127  0.95735228  0.98442916    -0.16600
C1278       C  0.67406893  0.98509700  0.49610400     0.25500
C1279       C  0.65871711  0.01113828  0.51057512    -0.18300
C1280       C  0.62652293  0.01176105  0.51176108    -0.07200
C1281       C  0.70727113  0.98363920  0.49636018    -0.13600
C1282       C  0.73495718  0.98135845  0.49709484    -0.13400
C1283       C  0.76803951  0.97831646  0.49862207     0.25400
C1284       C  0.78306395  0.97487229  0.53596008    -0.18800
C1285       C  0.81513389  0.97273875  0.53765789    -0.07200
C1286       C  0.83006923  0.97263890  0.00626015    -0.03300
C1287       C  0.81362524  0.97042371  0.96955852    -0.08600
C1288       C  0.78155507  0.97185306  0.96921022    -0.16300
H1289       H  0.61004572  0.93867381  0.97169633     0.11900
H1290       H  0.66639150  0.93749127  0.97239377     0.11200
H1291       H  0.67161934  0.03083126  0.52125314     0.11100
H1292       H  0.61500195  0.03196802  0.52307297     0.11600
H1293       H  0.76999892  0.97411915  0.56386462     0.11700
H1294       H  0.82614060  0.97043521  0.56695427     0.11700
H1295       H  0.82556349  0.96786525  0.94098151     0.11800
H1296       H  0.76944485  0.97036613  0.94054025     0.10600
C1297       C  0.90736109  0.06366379  0.75306400    -0.03200
C1298       C  0.90446247  0.08079398  0.71712795    -0.08900
C1299       C  0.90325166  0.11286794  0.71852033    -0.16600
C1300       C  0.90494301  0.12831096  0.75579250     0.25500
C1301       C  0.90773716  0.11141632  0.79166488    -0.18300
C1302       C  0.90889794  0.07937484  0.79035462    -0.07200
C1303       C  0.90431800  0.16143681  0.75729677    -0.13600
C1304       C  0.90454663  0.18914390  0.75887463    -0.13400
C1305       C  0.90611019  0.22224409  0.76059471     0.25400
C1306       C  0.93344648  0.23673987  0.77236096    -0.18800
C1307       C  0.93557997  0.26872585  0.77253678    -0.07200
C1308       C  0.91047715  0.28668794  0.76074693    -0.03300
C1309       C  0.88280826  0.27217448  0.74997418    -0.08600
C1310       C  0.88068633  0.24008319  0.74978029    -0.16300
H1311       H  0.90323181  0.06942749  0.68792869     0.11900
H1312       H  0.90114872  0.12561653  0.69050235     0.11200
H1313       H  0.90915982  0.12302257  0.82070037     0.11100
H1314       H  0.91120716  0.06691612  0.81855368     0.11600
H1315       H  0.95325872  0.22331383  0.78091995     0.11700
H1316       H  0.95701168  0.27954525  0.78125577     0.11700
H1317       H  0.86313159  0.28567126  0.74114889     0.11800
H1318       H  0.85936377  0.22919509  0.74077190     0.10600
C1319       C  0.92620476  0.72943461  0.74190193    -0.03200
C1320       C  0.92443421  0.71333339  0.70493785    -0.08900
C1321       C  0.92119438  0.68144156  0.70468771    -0.16600
C1322       C  0.91971546  0.66534911  0.74131985     0.25500
C1323       C  0.92244270  0.68109397  0.77815155    -0.18300
C1324       C  0.92570574  0.71292338  0.77848581    -0.07200
C1325       C  0.91507262  0.63273433  0.74135952    -0.13600
C1326       C  0.91185631  0.60533118  0.74244560    -0.13400
C1327       C  0.91025509  0.57247520  0.74424903     0.25400
C1328       C  0.88760080  0.55775152  0.76731179    -0.18800
C1329       C  0.88748066  0.52576572  0.77068881    -0.07200
C1330       C  0.91029261  0.50841721  0.75144223    -0.03300
C1331       C  0.93228797  0.52335809  0.72739049    -0.08600
C1332       C  0.93230278  0.55516943  0.72389362    -0.16300
H1333       H  0.92481803  0.72541766  0.67628826     0.11900
H1334       H  0.91933262  0.66941389  0.67599193     0.11200
H1335       H  0.92153859  0.66881444  0.80665593     0.11100
H1336       H  0.92706940  0.72465298  0.80742249     0.11600
H1337       H  0.87031433  0.57098009  0.78301099     0.11700
H1338       H  0.86996431  0.51458847  0.78866617     0.11700
H1339       H  0.94974939  0.51030038  0.71174866     0.11800
H1340       H  0.94978392  0.56629789  0.70576681     0.10600
C1341       C  0.92650416  0.06645802  0.00667224    -0.03200
C1342       C  0.93084902  0.08234276  0.54379447    -0.08900
C1343       C  0.93825975  0.11359785  0.54505855    -0.16600
C1344       C  0.94017159  0.12980302  0.00942915     0.25500
C1345       C  0.93775338  0.11456517  0.97206287    -0.18300
C1346       C  0.93095524  0.08314455  0.97065319    -0.07200
C1347       C  0.94790265  0.16207490  0.01095535    -0.13600
C1348       C  0.95320858  0.18931475  0.01193459    -0.13400
C1349       C  0.95667420  0.22230354  0.01203395     0.25400
C1350       C  0.93115671  0.24052597  0.00353395    -0.18800
C1351       C  0.93387188  0.27241305  0.00304547    -0.07200
C1352       C  0.96216069  0.28668299  0.01106939    -0.03300
C1353       C  0.99082152  0.26884587  0.52075937    -0.08600
C1354       C  0.98901677  0.23669445  0.52113589    -0.16300
H1355       H  0.92444337  0.07096530  0.57169797     0.11900
H1356       H  0.93710294  0.12577345  0.57369062     0.11200
H1357       H  0.94153742  0.12688004  0.94400703     0.11100
H1358       H  0.92996216  0.07177743  0.94144265     0.11600
H1359       H  0.90909468  0.23005498  0.99714708     0.11700
H1360       H  0.91384145  0.28608504  0.99627464     0.11700
H1361       H  0.01247161  0.28005539  0.52725727     0.11800
H1362       H  0.00932917  0.22347332  0.52798485     0.10600
C1363       C  0.96891228  0.50917458  0.00347438    -0.03200
C1364       C  0.94480592  0.52480755  0.98434909    -0.08900
C1365       C  0.94396016  0.55687266  0.98419475    -0.16600
C1366       C  0.96728338  0.57396807  0.00296423     0.25500
C1367       C  0.99361779  0.55801718  0.51952129    -0.18300
C1368       C  0.99341953  0.52579961  0.52060826    -0.07200
C1369       C  0.96505587  0.60716971  0.00444975    -0.13600
C1370       C  0.96122157  0.63470611  0.00521162    -0.13400
C1371       C  0.95521240  0.66744488  0.00542371     0.25400
C1372       C  0.95550449  0.68294465  0.53873892    -0.18800
C1373       C  0.94874663  0.71437059  0.53947975    -0.07200
C1374       C  0.94472294  0.73081500  0.50314105    -0.03300
C1375       C  0.94317856  0.71442242  0.96906010    -0.08600
C1376       C  0.94929042  0.68287798  0.96900404    -0.16300
H1377       H  0.92612212  0.51208970  0.97051776     0.11900
H1378       H  0.92475375  0.56834399  0.97003302     0.11200
H1379       H  0.01154268  0.57049096  0.53534485     0.11100
H1380       H  0.01126294  0.51391421  0.53709636     0.11600
H1381       H  0.95850951  0.67083701  0.56710885     0.11700
H1382       H  0.94694422  0.72584853  0.56853101     0.11700
H1383       H  0.93891079  0.72571618  0.94040312     0.11800
H1384       H  0.94943934  0.67052514  0.94046064     0.10600
C1385       C  0.38900110  0.82410501  0.74384371    -0.03200
C1386       C  0.37329830  0.85008131  0.72988778    -0.08900
C1387       C  0.34119743  0.85047973  0.72863396    -0.16600
C1388       C  0.32427006  0.82487896  0.74121077     0.25500
C1389       C  0.33982193  0.79856752  0.75416757    -0.18300
C1390       C  0.37200077  0.79808759  0.75521145    -0.07200
C1391       C  0.29104633  0.82574917  0.74093916    -0.13600
C1392       C  0.26328395  0.82685275  0.74096249    -0.13400
C1393       C  0.23008137  0.82823400  0.74128580     0.23800
C1394       C  0.21398882  0.82545301  0.77786203    -0.18800
C1395       C  0.18186921  0.82662562  0.77824770    -0.07200
C1396       C  0.16524865  0.83055458  0.74198098    -0.03300
C1397       C  0.18159337  0.83340016  0.70536402    -0.08600
C1398       C  0.21372830  0.83228442  0.70506128    -0.16300
H1399       H  0.38600366  0.87011957  0.72010758     0.11900
H1400       H  0.32957203  0.87078550  0.71791282     0.11200
H1401       H  0.32708016  0.77845994  0.76357938     0.11100
H1402       H  0.38365024  0.77758012  0.76518276     0.11600
H1403       H  0.22626954  0.82229729  0.80613207     0.11700
H1404       H  0.17004507  0.82425023  0.80693464     0.11700
H1405       H  0.16954905  0.83641223  0.67690595     0.11800
H1406       H  0.22580964  0.83449152  0.67652036     0.10600
C1407       C  0.60948147  0.79894491  0.74616828    -0.03200
C1408       C  0.62806653  0.82199606  0.72934185    -0.08900
C1409       C  0.65989317  0.81914038  0.72902764    -0.16600
C1410       C  0.67374064  0.79310432  0.74533536     0.25500
C1411       C  0.65541000  0.76937303  0.76080752    -0.18300
C1412       C  0.62335014  0.77212342  0.76081519    -0.07200
C1413       C  0.70675182  0.79155070  0.74662355    -0.13600
C1414       C  0.73439122  0.79334169  0.74690569    -0.13400
C1415       C  0.76713704  0.79813695  0.74643050     0.25400
C1416       C  0.78396949  0.79742545  0.78261682    -0.18800
C1417       C  0.81553124  0.80338213  0.78230060    -0.07200
C1418       C  0.83070797  0.81014424  0.74572245    -0.03300
C1419       C  0.81362912  0.81066560  0.70948245    -0.08600
C1420       C  0.78206015  0.80478479  0.70989185    -0.16300
H1421       H  0.61784175  0.84241718  0.71668912     0.11900
H1422       H  0.67374599  0.83746854  0.71648508     0.11200
H1423       H  0.66586628  0.74892723  0.77308738     0.11100
H1424       H  0.60944060  0.75358404  0.77261030     0.11600
H1425       H  0.77267744  0.79244455  0.81111349     0.11700
H1426       H  0.82806219  0.80257263  0.81066578     0.11700
H1427       H  0.82464218  0.81566973  0.68081998     0.11800
H1428       H  0.76926058  0.80558203  0.68171540     0.10600
C1429       C  0.39648988  0.87262246  0.49303759    -0.03200
C1430       C  0.37998623  0.84742594  0.47761244    -0.08900
C1431       C  0.34798553  0.84762511  0.47668431    -0.16600
C1432       C  0.33087238  0.87350565  0.99496456     0.25500
C1433       C  0.34644338  0.89839335  0.01264427    -0.18300
C1434       C  0.37863833  0.89936939  0.01277350    -0.07200
C1435       C  0.29777501  0.87139337  0.99600572    -0.13600
C1436       C  0.27030679  0.86736091  0.99659588    -0.13400
C1437       C  0.23777781  0.86071012  0.99726982     0.25400
C1438       C  0.22131773  0.85769339  0.96092321    -0.18800
C1439       C  0.18995789  0.85052546  0.96156191    -0.07200
C1440       C  0.17591806  0.84611868  0.49895353    -0.03300
C1441       C  0.19242471  0.85339108  0.53442725    -0.08600
C1442       C  0.22363026  0.86096980  0.53244764    -0.16300
H1443       H  0.39198841  0.82734316  0.46675549     0.11900
H1444       H  0.33578968  0.82775342  0.46513106     0.11200
H1445       H  0.33373613  0.91688366  0.02658639     0.11100
H1446       H  0.39030421  0.91881423  0.02632258     0.11600
H1447       H  0.23272374  0.86086225  0.93205437     0.11700
H1448       H  0.17773883  0.84858499  0.93303933     0.11700
H1449       H  0.18114086  0.85359060  0.56366243     0.11800
H1450       H  0.23591299  0.86649680  0.56012756     0.10600
C1451       C  0.61936137  0.85430497  0.49450248    -0.03200
C1452       C  0.63225259  0.82888752  0.98324501    -0.08900
C1453       C  0.66412651  0.82554542  0.98497441    -0.16600
C1454       C  0.68380101  0.84689125  0.49503970     0.25500
C1455       C  0.67061507  0.87421090  0.50913166    -0.18300
C1456       C  0.63861934  0.87798146  0.50862343    -0.07200
C1457       C  0.71672985  0.84223173  0.49676520    -0.13600
C1458       C  0.74407599  0.83730617  0.49819379    -0.13400
C1459       C  0.77676880  0.83119986  0.49966686     0.25400
C1460       C  0.79200839  0.82869198  0.53701422    -0.18800
C1461       C  0.82382218  0.82397237  0.53838521    -0.07200
C1462       C  0.84097524  0.82168592  0.50235634    -0.03300
C1463       C  0.82221852  0.81943379  0.97088161    -0.08600
C1464       C  0.79046779  0.82445728  0.97081581    -0.16300
H1465       H  0.61844798  0.81043830  0.97077474     0.11900
H1466       H  0.67440009  0.80467341  0.97361554     0.11200
H1467       H  0.68502502  0.89248355  0.52083880     0.11100
H1468       H  0.62886058  0.89907990  0.51992744     0.11600
H1469       H  0.77937453  0.83086106  0.56513406     0.11700
H1470       H  0.83507903  0.82283371  0.56764573     0.11700
H1471       H  0.83345574  0.81398443  0.94251552     0.11800
H1472       H  0.77785701  0.82260800  0.94256299     0.10600
loop_ 
_geom_bond_atom_site_label_1 
_geom_bond_atom_site_label_2 
_geom_bond_distance 
_geom_bond_site_symmetry_2 
_ccdc_geom_bond_type 
N1            C6   1.356       .  A
N1            C5   1.355       .  A
N1           H33   1.035       .  S
N2            C9   1.352       .  A
N2           C10   1.351       .  A
N3            C8   1.355       .  A
N3            C7   1.354       .  A
N3           H34   1.038       .  S
N4           C11   1.352       .  A
N4           C12   1.354       .  A
C5           C13   1.385       .  A
C5           C21   1.426       .  A
C6           C22   1.425   1_554  A
C6           C14   1.389       .  A
C7           C15   1.385       .  A
C7          C760   1.417       .  A
C8           C23   1.421       .  A
C8           C16   1.386       .  A
C9           C21   1.422       .  A
C9           C17   1.384       .  A
C10          C24   1.417   1_554  A
C10          C18   1.387       .  A
C11          C19   1.386       .  A
C11         C758   1.421       .  A
C12          C20   1.386       .  A
C12          C23   1.424       .  A
C13          C14   1.374       .  A
C13          H25   1.080       .  S
C14          H26   1.080       .  S
C15          C16   1.374       .  A
C15          H27   1.082       .  S
C16          H28   1.082       .  S
C17          C18   1.372       .  A
C17          H29   1.082       .  S
C18          H30   1.079       .  S
C19          C20   1.375       .  A
C19          H31   1.082       .  S
C20          H32   1.082       .  S
C21          C55   1.542       .  S
C22         C747   1.422       .  A
C22         C715   1.498       .  S
C23          C57   1.544       .  S
C24         C743   1.417       .  A
C24         C693   1.494       .  S
N35          C40   1.353       .  A
N35          C39   1.353       .  A
N35          H67   1.040       .  S
N36          C43   1.353       .  A
N36          C44   1.350       .  A
N37          C42   1.354       .  A
N37          C41   1.356       .  A
N37          H68   1.038       .  S
N38          C45   1.351       .  A
N38          C46   1.353       .  A
C39          C47   1.386       .  A
C39          C55   1.415       .  A
C40          C56   1.414       .  A
C40          C48   1.387       .  A
C41          C49   1.389       .  A
C41          C58   1.424       .  A
C42          C57   1.423       .  A
C42          C50   1.386       .  A
C43          C55   1.422       .  A
C43          C51   1.387       .  A
C44          C58   1.419       .  A
C44          C52   1.387       .  A
C45          C53   1.386       .  A
C45          C56   1.416       .  A
C46          C54   1.387       .  A
C46          C57   1.423       .  A
C47          C48   1.375       .  A
C47          H59   1.082       .  S
C48          H60   1.082       .  S
C49          C50   1.377       .  A
C49          H61   1.081       .  S
C50          H62   1.082       .  S
C51          C52   1.374       .  A
C51          H63   1.082       .  S
C52          H64   1.082       .  S
C53          C54   1.373       .  A
C53          H65   1.081       .  S
C54          H66   1.082       .  S
C56         C671   1.488       .  S
C58         C649   1.493       .  S
N69          C74   1.353       .  A
N69          C73   1.356       .  A
N69         H101   1.041       .  S
N70          C77   1.350       .  A
N70          C78   1.353       .  A
N71          C76   1.355       .  A
N71          C75   1.352       .  A
N71         H102   1.041       .  S
N72          C79   1.357       .  A
N72          C80   1.355       .  A
C73          C81   1.385       .  A
C73         C825   1.414       .  A
C74          C90   1.418       .  A
C74          C82   1.385       .  A
C75          C83   1.383       .  A
C75          C92   1.415       .  A
C76          C91   1.416       .  A
C76          C84   1.388       .  A
C77          C89   1.413       .  A
C77          C85   1.384       .  A
C78          C92   1.422       .  A
C78          C86   1.388       .  A
C79          C87   1.390       .  A
C79          C90   1.435       .  A
C80          C88   1.382       .  A
C80         C827   1.418       .  A
C81          C82   1.374       .  A
C81          H93   1.081       .  S
C82          H94   1.082       .  S
C83          C84   1.377       .  A
C83          H95   1.080       .  S
C84          H96   1.083       .  S
C85          C86   1.372       .  A
C85          H97   1.082       .  S
C86          H98   1.081       .  S
C87          C88   1.371       .  A
C87          H99   1.079       .  S
C88         H100   1.081       .  S
C89         C809   1.416       .  A
C89         C616   1.491       .  S
C90         C125   1.541       .  S
C91         C816   1.421       .  A
C91         C627   1.500       .  S
C92         C123   1.540       .  S
N103        C108   1.353       .  A
N103        C107   1.352       .  A
N103        H135   1.030       .  S
N104        C111   1.352       .  A
N104        C112   1.349       .  A
N105        C110   1.355       .  A
N105        C109   1.354       .  A
N105        H136   1.036       .  S
N106        C113   1.346       .  A
N106        C114   1.347       .  A
C107        C115   1.390       .  A
C107        C123   1.431       .  A
C108        C124   1.424       .  A
C108        C116   1.387       .  A
C109        C117   1.387       .  A
C109        C126   1.422       .  A
C110        C125   1.425       .  A
C110        C118   1.387       .  A
C111        C123   1.423       .  A
C111        C119   1.387       .  A
C112        C126   1.416       .  A
C112        C120   1.386       .  A
C113        C121   1.387       .  A
C113        C124   1.411       .  A
C114        C122   1.385       .  A
C114        C125   1.407       .  A
C115        C116   1.379       .  A
C115        H127   1.081       .  S
C116        H128   1.080       .  S
C117        C118   1.379       .  A
C117        H129   1.082       .  S
C118        H130   1.082       .  S
C119        C120   1.377       .  A
C119        H131   1.082       .  S
C120        H132   1.082       .  S
C121        C122   1.375       .  A
C121        H133   1.082       .  S
C122        H134   1.082       .  S
C124        C594   1.487       .  S
C126        C572   1.487       .  S
N137        C142   1.354       .  A
N137        C141   1.352       .  A
N137        H169   1.039       .  S
N138        C145   1.356       .  A
N138        C146   1.354       .  A
N139        C144   1.354       .  A
N139        C143   1.353       .  A
N139        H170   1.040       .  S
N140        C147   1.348       .  A
N140        C148   1.350       .  A
C141        C149   1.385       .  A
C141        C157   1.416       .  A
C142        C150   1.388   1_565  A
C142        C894   1.417       .  A
C143        C151   1.388       .  A
C143        C160   1.417       .  A
C144        C159   1.414       .  A
C144        C152   1.385       .  A
C145        C157   1.428       .  A
C145        C153   1.386       .  A
C146        C154   1.387       .  A
C146        C896   1.422       .  A
C147        C155   1.386   1_565  A
C147        C158   1.412       .  A
C148        C156   1.386       .  A
C148        C159   1.415       .  A
C149        C150   1.375   1_565  A
C149        H161   1.082   1_565  S
C150        H162   1.080       .  S
C151        C152   1.376       .  A
C151        H163   1.082   1_565  S
C152        H164   1.082       .  S
C153        C154   1.373       .  A
C153        H165   1.082       .  S
C154        H166   1.081       .  S
C155        C156   1.372   1_545  A
C155        H167   1.082       .  S
C156        H168   1.082   1_565  S
C157        C194   1.544       .  S
C158        C878   1.419       .  A
C158        C528   1.487   1_565  S
C159        C192   1.538       .  S
C160        C882   1.421       .  A
C160        C539   1.493       .  S
N171        C176   1.352       .  A
N171        C175   1.354       .  A
N171        H203   1.035       .  S
N172        C179   1.351       .  A
N172        C180   1.351       .  A
N173        C178   1.356       .  A
N173        C177   1.356       .  A
N173        H204   1.036       .  S
N174        C181   1.353       .  A
N174        C182   1.353       .  A
C175        C183   1.387       .  A
C175        C191   1.420       .  A
C176        C192   1.422       .  A
C176        C184   1.386       .  A
C177        C185   1.388       .  A
C177        C194   1.428       .  A
C178        C193   1.422       .  A
C178        C186   1.386       .  A
C179        C191   1.416       .  A
C179        C187   1.384       .  A
C180        C194   1.421       .  A
C180        C188   1.386       .  A
C181        C189   1.385       .  A
C181        C192   1.426       .  A
C182        C190   1.386       .  A
C182        C193   1.420       .  A
C183        C184   1.376       .  A
C183        H195   1.080       .  S
C184        H196   1.082       .  S
C185        C186   1.377       .  A
C185        H197   1.081       .  S
C186        H198   1.082       .  S
C187        C188   1.375       .  A
C187        H199   1.082       .  S
C188        H200   1.082       .  S
C189        C190   1.371       .  A
C189        H201   1.081       .  S
C190        H202   1.081       .  S
C191        C495   1.491       .  S
C193        C473   1.495       .  S
N205        C210   1.353       .  A
N205        C209   1.353       .  A
N205        H237   1.038       .  S
N206        C213   1.353       .  A
N206        C214   1.352       .  A
N207        C212   1.354       .  A
N207        C211   1.354       .  A
N207        H238   1.034       .  S
N208        C215   1.349       .  A
N208        C216   1.351       .  A
C209        C217   1.387       .  A
C209        C225   1.418       .  A
C210        C218   1.386       .  A
C210        C962   1.415       .  A
C211        C219   1.388       .  A
C211        C228   1.423   1_554  A
C212        C227   1.427       .  A
C212        C220   1.387       .  A
C213        C225   1.422       .  A
C213        C221   1.387       .  A
C214        C222   1.386       .  A
C214        C964   1.420       .  A
C215        C223   1.388       .  A
C215        C226   1.417   1_554  A
C216        C224   1.385       .  A
C216        C227   1.419       .  A
C217        C218   1.373       .  A
C217        H229   1.082       .  S
C218        H230   1.082       .  S
C219        C220   1.377       .  A
C219        H231   1.081       .  S
C220        H232   1.082       .  S
C221        C222   1.376       .  A
C221        H233   1.082       .  S
C222        H234   1.082       .  S
C223        C224   1.375       .  A
C223        H235   1.080       .  S
C224        H236   1.082       .  S
C225        C261   1.541       .  S
C226        C946   1.419       .  A
C226        C462   1.488       .  S
C227        C259   1.545       .  S
C228        C950   1.417       .  A
C228        C429   1.489       .  S
N239        C244   1.355       .  A
N239        C243   1.353       .  A
N239        H271   1.041       .  S
N240        C247   1.356       .  A
N240        C248   1.354       .  A
N241        C246   1.355       .  A
N241        C245   1.356       .  A
N241        H272   1.040       .  S
N242        C249   1.351       .  A
N242        C250   1.353       .  A
C243        C251   1.385       .  A
C243        C259   1.418       .  A
C244        C260   1.414       .  A
C244        C252   1.384       .  A
C245        C253   1.388       .  A
C245        C262   1.421       .  A
C246        C261   1.422       .  A
C246        C254   1.385       .  A
C247        C259   1.428       .  A
C247        C255   1.386       .  A
C248        C262   1.421       .  A
C248        C256   1.385       .  A
C249        C257   1.386       .  A
C249        C260   1.415       .  A
C250        C258   1.385       .  A
C250        C261   1.421       .  A
C251        C252   1.374       .  A
C251        H263   1.082       .  S
C252        H264   1.083       .  S
C253        C254   1.377       .  A
C253        H265   1.083       .  S
C254        H266   1.081       .  S
C255        C256   1.372       .  A
C255        H267   1.081       .  S
C256        H268   1.080       .  S
C257        C258   1.366       .  A
C257        H269   1.079       .  S
C258        H270   1.080       .  S
C260        C385   1.492       .  S
C262        C407   1.499       .  S
O273        V281   1.909       .  S
O273       C1019   1.267       .  A
O274        V281   1.907       .  S
O274       C1020   1.265       .  A
O275        V281   1.900       .  S
O275       C1021   1.264       .  A
O276        V281   1.903       .  S
O276       C1022   1.265       .  A
O277        V282   1.907       .  S
O277        C286   1.267       .  A
O278        V282   1.907       .  S
O278        C285   1.265       .  A
O279        V282   1.907       .  S
O279        C284   1.266       .  A
O280        V282   1.910       .  S
O280        C283   1.267       .  A
V281       V1018   2.086       .  T
V282       V1017   2.086   1_554  T
C283        C638   1.493       .  S
C283       O1009   1.267   1_554  A
C284        C313   1.477       .  S
C284       O1010   1.266   1_554  A
C285        C369   1.475   1_655  S
C285       O1011   1.265   1_554  A
C286        C726   1.490       .  S
C286       O1012   1.267   1_554  A
O287        V295   1.897       .  S
O287        C297   1.264       .  A
O288        V295   1.898       .  S
O288        C298   1.263       .  A
O289        V295   1.904       .  S
O289        C299   1.265       .  A
O290        V295   1.904       .  S
O290        C300   1.266       .  A
O291        V296   1.903       .  S
O291        C300   1.265       .  A
O292        V296   1.898       .  S
O292        C299   1.263       .  A
O293        V296   1.904       .  S
O293        C298   1.265       .  A
O294        V296   1.903       .  S
O294        C297   1.266       .  A
V295        V296   2.087       .  T
C297        C583   1.479       .  S
C298        C326   1.468       .  S
C299        C382   1.468   1_655  S
C300        C682   1.484       .  S
O301        V309   1.903       .  S
O301        C311   1.265       .  A
O302        V309   1.894       .  S
O302       C1048   1.262       .  A
O303        V309   1.908       .  S
O303       C1049   1.266       .  A
O304        V309   1.906   1_545  S
O304        C314   1.266       .  A
O305        V310   1.900   1_545  S
O305       C1050   1.265       .  A
O306        V310   1.904       .  S
O306        C313   1.265       .  A
O307        V310   1.905       .  S
O307        C312   1.265       .  A
O308        V310   1.910       .  S
O308       C1047   1.267       .  A
V309       V1046   2.086       .  T
V310       V1045   2.086   1_554  T
C311        C550   1.490       .  S
C311       O1044   1.268       .  A
C312        C340   1.467   1_655  S
C312       O1038   1.263   1_554  A
C313       O1039   1.267   1_554  A
C314        C605   1.487       .  S
C314       O1041   1.266       .  A
O315        V323   1.905   1_545  S
O315        C325   1.266       .  A
O316        V323   1.902       .  S
O316        C326   1.264       .  A
O317        V323   1.905       .  S
O317        C327   1.265       .  A
O318        V323   1.902       .  S
O318        C328   1.265       .  A
O319        V324   1.909       .  S
O319        C328   1.267       .  A
O320        V324   1.911       .  S
O320        C327   1.267       .  A
O321        V324   1.902       .  S
O321        C326   1.265       .  A
O322        V324   1.907   1_545  S
O322        C325   1.266       .  A
V323        V324   2.086       .  T
C325        C561   1.488       .  S
C327        C355   1.478   1_655  S
C328        C506   1.487       .  S
O329        V337   1.897       .  S
O329       C1075   1.264   1_554  A
O330        V337   1.900       .  S
O330        C340   1.263       .  A
O331        V337   1.905       .  S
O331       C1077   1.265       .  A
O332        V337   1.906   1_545  S
O332       C1078   1.267   1_554  A
O333        V338   1.893   1_545  S
O333        C342   1.263       .  A
O334        V338   1.892       .  S
O334        C341   1.262       .  A
O335        V338   1.897       .  S
O335       C1076   1.264       .  A
O336        V338   1.901       .  S
O336        C339   1.265       .  A
V337       V1074   2.087   1_554  T
V338       V1073   2.087       .  T
C339        C517   1.481       .  S
C339       O1065   1.265       .  A
C340       O1071   1.265   1_554  A
C341       C1104   1.468       .  S
C341       O1067   1.266       .  A
C342       C1187   1.483       .  S
C342       O1068   1.268       .  A
O343        V351   1.904   1_545  S
O343        C353   1.266       .  A
O344        V351   1.902       .  S
O344        C354   1.264       .  A
O345        V351   1.911       .  S
O345        C355   1.266       .  A
O346        V351   1.907       .  S
O346        C356   1.267       .  A
O347        V352   1.905       .  S
O347        C356   1.266       .  A
O348        V352   1.906       .  S
O348        C355   1.265       .  A
O349        V352   1.909       .  S
O349        C354   1.266       .  A
O350        V352   1.911   1_545  S
O350        C353   1.267       .  A
V351        V352   2.086       .  T
C353        C418   1.490       .  S
C354        C383   1.474       .  S
C356        C484   1.489       .  S
O357        V365   1.907       .  S
O357        C367   1.267       .  A
O358        V365   1.904       .  S
O358        C368   1.265       .  A
O359        V365   1.907       .  S
O359        C369   1.265       .  A
O360        V365   1.905       .  S
O360        C370   1.266   1_554  A
O361        V366   1.899       .  S
O361       C1106   1.264       .  A
O362        V366   1.899       .  S
O362       C1105   1.264       .  A
O363        V366   1.898       .  S
O363       C1104   1.265       .  A
O364        V366   1.904       .  S
O364       C1103   1.266       .  A
V365       V1102   2.087   1_554  T
V366       V1101   2.087       .  T
C367        C440   1.485   1_554  S
C367       O1100   1.265   1_554  A
C368       C1077   1.466       .  S
C368       O1099   1.263   1_554  A
C369       O1098   1.265   1_554  A
C370        C704   1.487       .  S
C370       O1097   1.266       .  A
O371        V379   1.906       .  S
O371        C381   1.266       .  A
O372        V379   1.903       .  S
O372        C382   1.264       .  A
O373        V379   1.903       .  S
O373        C383   1.265       .  A
O374        V379   1.900       .  S
O374        C384   1.265       .  A
O375        V380   1.905       .  S
O375        C384   1.266       .  A
O376        V380   1.908       .  S
O376        C383   1.266       .  A
O377        V380   1.900       .  S
O377        C382   1.264       .  A
O378        V380   1.908       .  S
O378        C381   1.267       .  A
V379        V380   2.086       .  T
C381        C660   1.489       .  S
C384        C396   1.484       .  S
C385        C386   1.405       .  A
C385        C390   1.406       .  A
C386        C387   1.400       .  A
C386        H399   1.081   1_455  S
C387        C388   1.401       .  A
C387        H400   1.083   1_455  S
C388        C389   1.400       .  A
C388        C391   1.443       .  S
C389        C390   1.398       .  A
C389        H401   1.083       .  S
C390        H402   1.083       .  S
C391        C392   1.208       .  T
C392        C393   1.444       .  S
C393        C394   1.401       .  A
C393        C398   1.399       .  A
C394        C395   1.402       .  A
C394        H403   1.083       .  S
C395        C396   1.408       .  A
C395        H404   1.083       .  S
C396        C397   1.407       .  A
C397        C398   1.399       .  A
C397        H405   1.083       .  S
C398        H406   1.084       .  S
C407        C408   1.407       .  A
C407        C412   1.407       .  A
C408        C409   1.400       .  A
C408        H421   1.083       .  S
C409        C410   1.400       .  A
C409        H422   1.083       .  S
C410        C411   1.404       .  A
C410        C413   1.451       .  S
C411        C412   1.406       .  A
C411        H423   1.083   1_455  S
C412        H424   1.083   1_455  S
C413        C414   1.213       .  T
C414        C415   1.451       .  S
C415        C416   1.403       .  A
C415        C420   1.401       .  A
C416        C417   1.405       .  A
C416        H425   1.083       .  S
C417        C418   1.409       .  A
C417        H426   1.083       .  S
C418        C419   1.408       .  A
C419        C420   1.401       .  A
C419        H427   1.083       .  S
C420        H428   1.083       .  S
C429        C434   1.405       .  A
C429       C1166   1.403       .  A
C430        C431   1.399       .  A
C430       C1165   1.404       .  A
C430        H443   1.083       .  S
C431        C432   1.401       .  A
C431        H444   1.084       .  S
C432       C1169   1.405       .  A
C432        C435   1.449       .  S
C433        C434   1.403   1_554  A
C433       C1168   1.404   1_554  A
C433        H445   1.083       .  S
C434        H446   1.083   1_556  S
C435        C436   1.212       .  T
C436        C437   1.450       .  S
C437        C442   1.401       .  A
C437       C1174   1.402       .  A
C438        C439   1.402       .  A
C438       C1173   1.402   1_554  A
C438        H447   1.083       .  S
C439        C440   1.408   1_554  A
C439        H448   1.083       .  S
C440       C1177   1.408       .  A
C441        C442   1.402       .  A
C441       C1176   1.408       .  A
C441        H449   1.083       .  S
C442        H450   1.083       .  S
C451        C452   1.407   1_556  A
C451       C1192   1.408       .  A
C451       C1078   1.483       .  S
C452       C1189   1.401       .  A
C452        H465   1.083       .  S
C453        C454   1.402       .  A
C453       C1188   1.402       .  A
C453       H1202   1.083       .  S
C454        C455   1.398       .  A
C454        C457   1.442       .  S
C455        C456   1.397       .  A
C455        H467   1.084       .  S
C456       C1187   1.408       .  A
C456        H468   1.083       .  S
C457        C458   1.207       .  T
C458        C459   1.442       .  S
C459        C460   1.403       .  A
C459        C464   1.399       .  A
C460        C461   1.402       .  A
C460        H469   1.083       .  S
C461       C1198   1.404       .  A
C461        H470   1.083       .  S
C462        C463   1.404       .  A
C462       C1197   1.405       .  A
C463       C1200   1.396       .  A
C463        H471   1.084       .  S
C464       C1199   1.395       .  A
C464       H1208   1.083       .  S
H466       C1189   1.083       .  S
H472       C1200   1.083       .  S
C473        C474   1.405       .  A
C473        C478   1.406       .  A
C474        C475   1.400       .  A
C474        H487   1.083       .  S
C475        C476   1.401       .  A
C475        H488   1.083   1_565  S
C476        C477   1.404       .  A
C476        C479   1.449       .  S
C477        C478   1.405       .  A
C477        H489   1.083       .  S
C478        H490   1.082       .  S
C479        C480   1.212       .  T
C480        C481   1.449       .  S
C481        C482   1.401       .  A
C481        C486   1.402       .  A
C482        C483   1.403       .  A
C482        H491   1.083       .  S
C483        C484   1.409       .  A
C483        H492   1.083       .  S
C484        C485   1.408       .  A
C485        C486   1.402       .  A
C485        H493   1.083       .  S
C486        H494   1.083       .  S
C495        C496   1.406       .  A
C495        C500   1.404       .  A
C496        C497   1.406       .  A
C496        H509   1.083       .  S
C497        C498   1.405       .  A
C497        H510   1.083       .  S
C498        C499   1.399       .  A
C498        C501   1.447       .  S
C499        C500   1.396       .  A
C499        H511   1.084       .  S
C500        H512   1.083       .  S
C501        C502   1.211       .  T
C502        C503   1.448       .  S
C503        C504   1.400       .  A
C503        C508   1.402       .  A
C504        C505   1.401       .  A
C504        H513   1.083       .  S
C505        C506   1.409       .  A
C505        H514   1.083       .  S
C506        C507   1.408       .  A
C507        C508   1.403       .  A
C507        H515   1.083       .  S
C508        H516   1.083       .  S
C517        C522   1.407       .  A
C517       C1254   1.407       .  A
C518        C519   1.397       .  A
C518       C1253   1.407   1_554  A
C518        H531   1.083       .  S
C519       C1256   1.399   1_564  A
C519        H532   1.084   1_565  S
C520        C521   1.400       .  A
C520       C1255   1.400   1_545  A
C520        C523   1.440       .  S
C521        C522   1.399   1_545  A
C521        H533   1.084       .  S
C522        H534   1.083       .  S
C523        C524   1.206       .  T
C524        C525   1.439       .  S
C525        C526   1.397   1_545  A
C525       C1266   1.403       .  A
C526        C527   1.394       .  A
C526        H535   1.084       .  S
C527        C528   1.404   1_565  A
C527        H536   1.083       .  S
C528       C1265   1.405       .  A
C529        C530   1.401       .  A
C529       C1264   1.404   1_554  A
C529        H537   1.083       .  S
C530       C1261   1.402   1_554  A
C530        H538   1.083       .  S
C539        C540   1.405       .  A
C539       C1280   1.406   1_565  A
C540        C541   1.399       .  A
C540        H553   1.084       .  S
C541       C1278   1.400       .  A
C541        H554   1.083       .  S
C542        C543   1.404   1_565  A
C542       C1277   1.400   1_554  A
C542        C545   1.448       .  S
C543        C544   1.404       .  A
C543        H555   1.083       .  S
C544       C1275   1.406   1_545  A
C544        H556   1.083       .  S
C545        C546   1.211       .  T
C546        C547   1.448       .  S
C547        C548   1.402       .  A
C547       C1288   1.400   1_554  A
C548        C549   1.404       .  A
C548        H557   1.083       .  S
C549       C1286   1.408       .  A
C549        H558   1.083       .  S
C550        C551   1.410       .  A
C550       C1285   1.408       .  A
C551        C552   1.403       .  A
C551        H559   1.083       .  S
C552       C1283   1.401       .  A
C552        H560   1.083       .  S
C561        C562   1.409       .  A
C561        C566   1.408       .  A
C562        C563   1.403       .  A
C562        H575   1.083       .  S
C563        C564   1.402       .  A
C563        H576   1.083       .  S
C564        C565   1.401       .  A
C564        C567   1.449       .  S
C565        C566   1.401       .  A
C565        H577   1.083       .  S
C566        H578   1.083       .  S
C567        C568   1.211       .  T
C568        C569   1.449       .  S
C569        C570   1.401       .  A
C569        C574   1.405       .  A
C570        C571   1.398       .  A
C570        H579   1.083       .  S
C571        C572   1.403       .  A
C571        H580   1.083       .  S
C572        C573   1.405       .  A
C573        C574   1.405       .  A
C573        H581   1.083       .  S
C574        H582   1.083       .  S
C583        C584   1.407       .  A
C583        C588   1.406       .  A
C584        C585   1.398       .  A
C584        H597   1.083       .  S
C585        C586   1.399       .  A
C585        H598   1.084       .  S
C586        C587   1.400       .  A
C586        C589   1.439       .  S
C587        C588   1.399       .  A
C587        H599   1.084       .  S
C588        H600   1.083       .  S
C589        C590   1.205       .  T
C590        C591   1.438       .  S
C591        C592   1.403       .  A
C591        C596   1.396       .  A
C592        C593   1.401       .  A
C592        H601   1.083       .  S
C593        C594   1.404       .  A
C593        H602   1.083       .  S
C594        C595   1.406       .  A
C595        C596   1.394       .  A
C595        H603   1.084       .  S
C596        H604   1.084       .  S
C605        C610   1.408       .  A
C605       C1342   1.408       .  A
C606        C607   1.401       .  A
C606       C1341   1.409       .  A
C606        H619   1.083       .  S
C607       C1344   1.400       .  A
C607        H620   1.084       .  S
C608        C609   1.401       .  A
C608       C1343   1.401       .  A
C608        C611   1.448       .  S
C609        C610   1.402       .  A
C609        H621   1.083       .  S
C610        H622   1.083       .  S
C611        C612   1.211       .  T
C612        C613   1.448       .  S
C613        C614   1.400       .  A
C613       C1354   1.405       .  A
C614        C615   1.397       .  A
C614        H623   1.084       .  S
C615        C616   1.404       .  A
C615        H624   1.083       .  S
C616       C1353   1.405       .  A
C617        C618   1.406       .  A
C617       C1352   1.405       .  A
C617        H625   1.082   1_655  S
C618       C1349   1.405       .  A
C618        H626   1.083   1_655  S
C627        C628   1.406       .  A
C627       C1368   1.408       .  A
C628        C629   1.400       .  A
C628        H641   1.083       .  S
C629        C630   1.401       .  A
C629        H642   1.083       .  S
C630       C1367   1.405       .  A
C630        C633   1.454       .  S
C631        C632   1.407       .  A
C631       C1366   1.405       .  A
C631        H643   1.083   1_655  S
C632       C1363   1.407       .  A
C632        H644   1.083   1_655  S
C633        C634   1.215       .  T
C634        C635   1.454       .  S
C635        C640   1.402       .  A
C635       C1372   1.403       .  A
C636        C637   1.405       .  A
C636       C1371   1.403       .  A
C636        H645   1.083       .  S
C637        C638   1.409       .  A
C637        H646   1.083       .  S
C638       C1375   1.409   1_554  A
C639        C640   1.404       .  A
C639       C1374   1.409       .  A
C639        H647   1.083       .  S
C640        H648   1.083       .  S
C649        C650   1.405       .  A
C649        C654   1.406       .  A
C650        C651   1.399       .  A
C650        H663   1.084       .  S
C651        C652   1.400       .  A
C651        H664   1.083       .  S
C652        C653   1.404       .  A
C652        C655   1.449       .  S
C653        C654   1.404       .  A
C653        H665   1.083       .  S
C654        H666   1.083       .  S
C655        C656   1.211       .  T
C656        C657   1.449       .  S
C657        C658   1.402       .  A
C657        C662   1.401       .  A
C658        C659   1.403       .  A
C658        H667   1.083       .  S
C659        C660   1.409       .  A
C659        H668   1.083       .  S
C660        C661   1.408       .  A
C661        C662   1.402       .  A
C661        H669   1.083       .  S
C662        H670   1.083       .  S
C671        C672   1.404       .  A
C671        C676   1.406       .  A
C672        C673   1.395       .  A
C672        H685   1.083       .  S
C673        C674   1.399       .  A
C673        H686   1.084       .  S
C674        C675   1.404       .  A
C674        C677   1.444       .  S
C675        C676   1.404       .  A
C675        H687   1.083       .  S
C676        H688   1.083       .  S
C677        C678   1.209       .  T
C678        C679   1.445       .  S
C679        C680   1.401       .  A
C679        C684   1.401       .  A
C680        C681   1.401       .  A
C680        H689   1.083       .  S
C681        C682   1.408       .  A
C681        H690   1.083       .  S
C682        C683   1.407       .  A
C683        C684   1.400       .  A
C683        H691   1.083       .  S
C684        H692   1.084       .  S
C693        C694   1.406       .  A
C693       C1434   1.406   1_556  A
C694        C695   1.397       .  A
C694        H707   1.084       .  S
C695       C1432   1.399       .  A
C695        H708   1.084       .  S
C696        C697   1.404       .  A
C696       C1431   1.399       .  A
C696        C699   1.445       .  S
C697        C698   1.404       .  A
C697        H709   1.083       .  S
C698       C1429   1.406       .  A
C698        H710   1.083       .  S
C699        C700   1.209       .  T
C700        C701   1.445       .  S
C701        C702   1.401       .  A
C701       C1442   1.401       .  A
C702        C703   1.401       .  A
C702        H711   1.084       .  S
C703       C1440   1.409       .  A
C703        H712   1.083       .  S
C704        C705   1.408   1_556  A
C704       C1439   1.408       .  A
C705        C706   1.401       .  A
C705        H713   1.083       .  S
C706       C1437   1.401   1_554  A
C706        H714   1.083       .  S
C715        C720   1.407   1_556  A
C715       C1452   1.406       .  A
C716        C717   1.400       .  A
C716       C1451   1.407       .  A
C716        H729   1.083       .  S
C717       C1454   1.401       .  A
C717        H730   1.083       .  S
C718        C719   1.404       .  A
C718       C1453   1.400   1_554  A
C718        C721   1.451       .  S
C719        C720   1.405       .  A
C719        H731   1.083       .  S
C720        H732   1.082       .  S
C721        C722   1.213       .  T
C722        C723   1.451       .  S
C723        C724   1.402       .  A
C723       C1464   1.402   1_554  A
C724        C725   1.403       .  A
C724        H733   1.083       .  S
C725        C726   1.409       .  A
C725        H734   1.083       .  S
C726       C1463   1.408   1_554  A
C727        C728   1.402       .  A
C727       C1462   1.409       .  A
C727        H735   1.083       .  S
C728       C1459   1.401       .  A
C728        H736   1.083       .  S
N737        C742   1.357       .  A
N737        C741   1.355       .  A
N737        H769   1.035       .  S
N738        C745   1.353       .  A
N738        C746   1.352       .  A
N739        C744   1.355       .  A
N739        C743   1.355       .  A
N739        H770   1.039       .  S
N740        C747   1.353       .  A
N740        C748   1.355       .  A
C741        C749   1.386       .  A
C741        C757   1.428       .  A
C742        C758   1.426       .  A
C742        C750   1.388       .  A
C743        C751   1.384       .  A
C744        C759   1.420       .  A
C744        C752   1.386       .  A
C745        C757   1.424       .  A
C745        C753   1.383       .  A
C746        C760   1.418       .  A
C746        C754   1.386       .  A
C747        C755   1.385       .  A
C748        C756   1.387       .  A
C748        C759   1.428       .  A
C749        C750   1.376       .  A
C749        H761   1.080       .  S
C750        H762   1.080       .  S
C751        C752   1.375       .  A
C751        H763   1.082       .  S
C752        H764   1.082       .  S
C753        C754   1.371       .  A
C753        H765   1.081       .  S
C754        H766   1.080       .  S
C755        C756   1.373       .  A
C755        H767   1.082       .  S
C756        H768   1.080       .  S
C757        C791   1.545       .  S
C758       C1451   1.499       .  S
C759        C793   1.546       .  S
C760       C1429   1.493       .  S
N771        C776   1.354       .  A
N771        C775   1.355       .  A
N771        H803   1.040       .  S
N772        C779   1.354       .  A
N772        C780   1.352       .  A
N773        C778   1.356       .  A
N773        C777   1.357       .  A
N773        H804   1.037       .  S
N774        C781   1.352       .  A
N774        C782   1.353       .  A
C775        C783   1.386       .  A
C775        C791   1.416       .  A
C776        C792   1.416       .  A
C776        C784   1.386       .  A
C777        C785   1.388       .  A
C777        C794   1.425       .  A
C778        C793   1.426       .  A
C778        C786   1.387       .  A
C779        C791   1.422       .  A
C779        C787   1.386       .  A
C780        C794   1.419       .  A
C780        C788   1.386       .  A
C781        C789   1.387       .  A
C781        C792   1.418       .  A
C782        C790   1.385       .  A
C782        C793   1.422       .  A
C783        C784   1.373       .  A
C783        H795   1.082       .  S
C784        H796   1.082       .  S
C785        C786   1.377       .  A
C785        H797   1.081       .  S
C786        H798   1.082       .  S
C787        C788   1.373       .  A
C787        H799   1.082       .  S
C788        H800   1.082       .  S
C789        C790   1.372       .  A
C789        H801   1.080       .  S
C790        H802   1.082       .  S
C792       C1407   1.492       .  S
C794       C1385   1.495       .  S
N805        C810   1.353       .  A
N805        C809   1.357       .  A
N805        H837   1.040       .  S
N806        C813   1.351       .  A
N806        C814   1.353       .  A
N807        C812   1.354       .  A
N807        C811   1.353       .  A
N807        H838   1.042       .  S
N808        C815   1.357       .  A
N808        C816   1.356       .  A
C809        C817   1.385       .  A
C810        C826   1.420       .  A
C810        C818   1.385       .  A
C811        C819   1.384       .  A
C811        C828   1.415       .  A
C812        C827   1.415   1_556  A
C812        C820   1.388       .  A
C813        C825   1.413   1_556  A
C813        C821   1.383       .  A
C814        C828   1.423       .  A
C814        C822   1.388       .  A
C815        C823   1.389       .  A
C815        C826   1.434       .  A
C816        C824   1.383       .  A
C817        C818   1.374       .  A
C817        H829   1.081       .  S
C818        H830   1.082       .  S
C819        C820   1.380       .  A
C819        H831   1.080       .  S
C820        H832   1.083       .  S
C821        C822   1.372       .  A
C821        H833   1.082       .  S
C822        H834   1.081       .  S
C823        C824   1.371       .  A
C823        H835   1.080       .  S
C824        H836   1.081       .  S
C825       C1352   1.490       .  S
C826        C861   1.542       .  S
C827       C1363   1.496       .  S
C828        C859   1.546       .  S
N839        C844   1.353       .  A
N839        C843   1.357       .  A
N839        H871   1.029       .  S
N840        C847   1.353       .  A
N840        C848   1.349       .  A
N841        C846   1.356       .  A
N841        C845   1.355       .  A
N841        H872   1.036       .  S
N842        C849   1.347       .  A
N842        C850   1.348       .  A
C843        C851   1.391       .  A
C843        C859   1.438       .  A
C844        C860   1.424       .  A
C844        C852   1.384       .  A
C845        C853   1.389       .  A
C845        C862   1.424       .  A
C846        C861   1.426       .  A
C846        C854   1.387       .  A
C847        C859   1.425       .  A
C847        C855   1.387       .  A
C848        C862   1.417       .  A
C848        C856   1.386       .  A
C849        C857   1.387       .  A
C849        C860   1.413       .  A
C850        C858   1.385       .  A
C850        C861   1.410       .  A
C851        C852   1.377       .  A
C851        H863   1.080       .  S
C852        H864   1.081       .  S
C853        C854   1.378       .  A
C853        H865   1.081       .  S
C854        H866   1.082       .  S
C855        C856   1.377       .  A
C855        H867   1.082       .  S
C856        H868   1.082       .  S
C857        C858   1.375       .  A
C857        H869   1.082       .  S
C858        H870   1.082       .  S
C860       C1330   1.486       .  S
C862       C1308   1.490       .  S
N873        C878   1.355       .  A
N873        C877   1.353       .  A
N873        H905   1.038       .  S
N874        C881   1.355       .  A
N874        C882   1.353       .  A
N875        C880   1.356       .  A
N875        C879   1.354       .  A
N875        H906   1.039       .  S
N876        C883   1.347       .  A
N876        C884   1.351       .  A
C877        C885   1.385       .  A
C877        C893   1.419       .  A
C878        C886   1.388   1_565  A
C879        C887   1.388       .  A
C879        C896   1.421   1_556  A
C880        C895   1.420       .  A
C880        C888   1.386       .  A
C881        C893   1.428       .  A
C881        C889   1.387       .  A
C882        C890   1.386       .  A
C883        C891   1.386   1_565  A
C883        C894   1.410   1_556  A
C884        C892   1.386       .  A
C884        C895   1.413       .  A
C885        C886   1.375   1_565  A
C885        H897   1.082   1_565  S
C886        H898   1.080       .  S
C887        C888   1.376       .  A
C887        H899   1.082       .  S
C888        H900   1.082       .  S
C889        C890   1.375       .  A
C889        H901   1.082       .  S
C890        H902   1.081       .  S
C891        C892   1.372   1_545  A
C891        H903   1.082       .  S
C892        H904   1.082   1_565  S
C893        C930   1.546       .  S
C894       C1264   1.485   1_564  S
C895        C928   1.543       .  S
C896       C1275   1.495       .  S
N907        C912   1.353       .  A
N907        C911   1.354       .  A
N907        H939   1.037       .  S
N908        C915   1.350       .  A
N908        C916   1.352       .  A
N909        C914   1.357       .  A
N909        C913   1.357       .  A
N909        H940   1.038       .  S
N910        C917   1.357       .  A
N910        C918   1.355       .  A
C911        C919   1.385       .  A
C911        C927   1.415       .  A
C912        C928   1.420       .  A
C912        C920   1.386       .  A
C913        C921   1.387       .  A
C913        C930   1.428       .  A
C914        C929   1.424       .  A
C914        C922   1.387       .  A
C915        C927   1.413       .  A
C915        C923   1.384       .  A
C916        C930   1.421       .  A
C916        C924   1.386       .  A
C917        C925   1.385       .  A
C917        C928   1.431       .  A
C918        C926   1.386       .  A
C918        C929   1.424       .  A
C919        C920   1.375       .  A
C919        H931   1.081       .  S
C920        H932   1.082       .  S
C921        C922   1.376       .  A
C921        H933   1.081       .  S
C922        H934   1.082       .  S
C923        C924   1.374       .  A
C923        H935   1.083       .  S
C924        H936   1.082       .  S
C925        C926   1.369       .  A
C925        H937   1.079       .  S
C926        H938   1.080       .  S
C927       C1231   1.486       .  S
C929       C1209   1.502       .  S
N941        C946   1.354       .  A
N941        C945   1.355       .  A
N941        H973   1.036       .  S
N942        C949   1.353       .  A
N942        C950   1.351       .  A
N943        C948   1.354       .  A
N943        C947   1.354       .  A
N943        H974   1.034       .  S
N944        C951   1.348       .  A
N944        C952   1.351       .  A
C945        C953   1.388       .  A
C945        C961   1.425       .  A
C946        C954   1.386       .  A
C947        C955   1.389       .  A
C947        C964   1.424       .  A
C948        C963   1.427       .  A
C948        C956   1.387       .  A
C949        C961   1.420       .  A
C949        C957   1.386       .  A
C950        C958   1.386       .  A
C951        C959   1.387       .  A
C951        C962   1.415       .  A
C952        C960   1.385       .  A
C952        C963   1.419       .  A
C953        C954   1.376       .  A
C953        H965   1.082       .  S
C954        H966   1.082       .  S
C955        C956   1.378       .  A
C955        H967   1.081       .  S
C956        H968   1.082       .  S
C957        C958   1.376       .  A
C957        H969   1.082       .  S
C958        H970   1.082       .  S
C959        C960   1.376       .  A
C959        H971   1.081       .  S
C960        H972   1.082       .  S
C961        C997   1.543       .  S
C962       C1198   1.484       .  S
C963        C995   1.545       .  S
C964       C1165   1.493       .  S
N975        C980   1.355       .  A
N975        C979   1.354       .  A
N975       H1007   1.040       .  S
N976        C983   1.357       .  A
N976        C984   1.355       .  A
N977        C982   1.355       .  A
N977        C981   1.356       .  A
N977       H1008   1.040       .  S
N978        C985   1.353       .  A
N978        C986   1.355       .  A
C979        C987   1.385       .  A
C979        C995   1.419       .  A
C980        C996   1.416       .  A
C980        C988   1.386       .  A
C981        C989   1.388       .  A
C981        C998   1.421       .  A
C982        C997   1.420       .  A
C982        C990   1.385       .  A
C983        C995   1.430       .  A
C983        C991   1.386       .  A
C984        C998   1.422       .  A
C984        C992   1.385       .  A
C985        C993   1.386       .  A
C985        C996   1.419       .  A
C986        C994   1.386       .  A
C986        C997   1.425       .  A
C987        C988   1.374       .  A
C987        H999   1.082       .  S
C988       H1000   1.083       .  S
C989        C990   1.376       .  A
C989       H1001   1.083       .  S
C990       H1002   1.081       .  S
C991        C992   1.372       .  A
C991       H1003   1.080       .  S
C992       H1004   1.080       .  S
C993        C994   1.368       .  A
C993       H1005   1.079       .  S
C994       H1006   1.080       .  S
C996       C1121   1.496       .  S
C998       C1143   1.502       .  S
O1009      V1017   1.909       .  S
O1010      V1017   1.909       .  S
O1011      V1017   1.906       .  S
O1012      V1017   1.907       .  S
O1013      V1018   1.912       .  S
O1013      C1022   1.268       .  A
O1014      V1018   1.911       .  S
O1014      C1021   1.266       .  A
O1015      V1018   1.910       .  S
O1015      C1020   1.266       .  A
O1016      V1018   1.911       .  S
O1016      C1019   1.268       .  A
C1019      C1374   1.493       .  S
C1020      C1049   1.478       .  S
C1021      C1105   1.474   1_655  S
C1022      C1462   1.491       .  S
O1023      V1031   1.900       .  S
O1023      C1033   1.265       .  A
O1024      V1031   1.902       .  S
O1024      C1034   1.264       .  A
O1025      V1031   1.901       .  S
O1025      C1035   1.264       .  A
O1026      V1031   1.902       .  S
O1026      C1036   1.266       .  A
O1027      V1032   1.901       .  S
O1027      C1036   1.265       .  A
O1028      V1032   1.898       .  S
O1028      C1035   1.264       .  A
O1029      V1032   1.900       .  S
O1029      C1034   1.264       .  A
O1030      V1032   1.896       .  S
O1030      C1033   1.264       .  A
V1031      V1032   2.088       .  T
C1033      C1319   1.478       .  S
C1034      C1062   1.468       .  S
C1035      C1118   1.465   1_655  S
C1036      C1418   1.482       .  S
O1037      V1045   1.901       .  S
O1037      C1047   1.265   1_556  A
O1038      V1045   1.898       .  S
O1039      V1045   1.911       .  S
O1040      V1045   1.910   1_545  S
O1040      C1050   1.267   1_556  A
O1041      V1046   1.904   1_545  S
O1042      V1046   1.909       .  S
O1042      C1049   1.266       .  A
O1043      V1046   1.910       .  S
O1043      C1048   1.266       .  A
O1044      V1046   1.913       .  S
C1047      C1286   1.488       .  S
C1048      C1076   1.468   1_655  S
C1050      C1341   1.487       .  S
O1051      V1059   1.903   1_545  S
O1051      C1061   1.266       .  A
O1052      V1059   1.901       .  S
O1052      C1062   1.264       .  A
O1053      V1059   1.904       .  S
O1053      C1063   1.265       .  A
O1054      V1059   1.900       .  S
O1054      C1064   1.265       .  A
O1055      V1060   1.909       .  S
O1055      C1064   1.267       .  A
O1056      V1060   1.911       .  S
O1056      C1063   1.267       .  A
O1057      V1060   1.902       .  S
O1057      C1062   1.264       .  A
O1058      V1060   1.904   1_545  S
O1058      C1061   1.266       .  A
V1059      V1060   2.087       .  T
C1061      C1297   1.486       .  S
C1063      C1091   1.477   1_655  S
C1064      C1242   1.486       .  S
O1065      V1073   1.901       .  S
O1066      V1073   1.906       .  S
O1066      C1076   1.265       .  A
O1067      V1073   1.910       .  S
O1068      V1073   1.912   1_545  S
O1069      V1074   1.897   1_545  S
O1069      C1078   1.264       .  A
O1070      V1074   1.895       .  S
O1070      C1077   1.263   1_556  A
O1071      V1074   1.901       .  S
O1072      V1074   1.902       .  S
O1072      C1075   1.265       .  A
C1075      C1253   1.479       .  S
O1079      V1087   1.905   1_545  S
O1079      C1089   1.266       .  A
O1080      V1087   1.900       .  S
O1080      C1090   1.264       .  A
O1081      V1087   1.909       .  S
O1081      C1091   1.265       .  A
O1082      V1087   1.905       .  S
O1082      C1092   1.266       .  A
O1083      V1088   1.908       .  S
O1083      C1092   1.267       .  A
O1084      V1088   1.907       .  S
O1084      C1091   1.266       .  A
O1085      V1088   1.910       .  S
O1085      C1090   1.266       .  A
O1086      V1088   1.913   1_545  S
O1086      C1089   1.268       .  A
V1087      V1088   2.086       .  T
C1089      C1154   1.492       .  S
C1090      C1119   1.473       .  S
C1092      C1220   1.490       .  S
O1093      V1101   1.908       .  S
O1093      C1103   1.267       .  A
O1094      V1101   1.905       .  S
O1094      C1104   1.264       .  A
O1095      V1101   1.911       .  S
O1095      C1105   1.266       .  A
O1096      V1101   1.908       .  S
O1096      C1106   1.267       .  A
O1097      V1102   1.906       .  S
O1098      V1102   1.905       .  S
O1099      V1102   1.896       .  S
O1100      V1102   1.900       .  S
C1103      C1176   1.488       .  S
C1106      C1440   1.485       .  S
O1107      V1115   1.906       .  S
O1107      C1117   1.266       .  A
O1108      V1115   1.901       .  S
O1108      C1118   1.264       .  A
O1109      V1115   1.899       .  S
O1109      C1119   1.264       .  A
O1110      V1115   1.899       .  S
O1110      C1120   1.265       .  A
O1111      V1116   1.907       .  S
O1111      C1120   1.267       .  A
O1112      V1116   1.910       .  S
O1112      C1119   1.266       .  A
O1113      V1116   1.899       .  S
O1113      C1118   1.264       .  A
O1114      V1116   1.906       .  S
O1114      C1117   1.266       .  A
V1115      V1116   2.087       .  T
C1117      C1396   1.488       .  S
C1120      C1132   1.485       .  S
C1121      C1122   1.406       .  A
C1121      C1126   1.407       .  A
C1122      C1123   1.402       .  A
C1122      H1135   1.082   1_455  S
C1123      C1124   1.402       .  A
C1123      H1136   1.083   1_455  S
C1124      C1125   1.400       .  A
C1124      C1127   1.445       .  S
C1125      C1126   1.398       .  A
C1125      H1137   1.083       .  S
C1126      H1138   1.083       .  S
C1127      C1128   1.209       .  T
C1128      C1129   1.445       .  S
C1129      C1130   1.402       .  A
C1129      C1134   1.399       .  A
C1130      C1131   1.402       .  A
C1130      H1139   1.083       .  S
C1131      C1132   1.408       .  A
C1131      H1140   1.083       .  S
C1132      C1133   1.408       .  A
C1133      C1134   1.399       .  A
C1133      H1141   1.083       .  S
C1134      H1142   1.084       .  S
C1143      C1144   1.407       .  A
C1143      C1148   1.408       .  A
C1144      C1145   1.400       .  A
C1144      H1157   1.083       .  S
C1145      C1146   1.400       .  A
C1145      H1158   1.083       .  S
C1146      C1147   1.405       .  A
C1146      C1149   1.453       .  S
C1147      C1148   1.407       .  A
C1147      H1159   1.083   1_455  S
C1148      H1160   1.083   1_455  S
C1149      C1150   1.214       .  T
C1150      C1151   1.453       .  S
C1151      C1152   1.403       .  A
C1151      C1156   1.402       .  A
C1152      C1153   1.404       .  A
C1152      H1161   1.083       .  S
C1153      C1154   1.408       .  A
C1153      H1162   1.083       .  S
C1154      C1155   1.409       .  A
C1155      C1156   1.403       .  A
C1155      H1163   1.083       .  S
C1156      H1164   1.083       .  S
C1165      C1170   1.406       .  A
C1166      C1167   1.398       .  A
C1166      H1179   1.083       .  S
C1167      C1168   1.400       .  A
C1167      H1180   1.084       .  S
C1168      C1171   1.445       .  S
C1169      C1170   1.405       .  A
C1169      H1181   1.083       .  S
C1170      H1182   1.083       .  S
C1171      C1172   1.209       .  T
C1172      C1173   1.446       .  S
C1173      C1178   1.400       .  A
C1174      C1175   1.403       .  A
C1174      H1183   1.083       .  S
C1175      C1176   1.408       .  A
C1175      H1184   1.083       .  S
C1177      C1178   1.399       .  A
C1177      H1185   1.083       .  S
C1178      H1186   1.084       .  S
C1187      C1188   1.407       .  A
C1188      H1201   1.083       .  S
C1189      C1190   1.401   1_554  A
C1190      C1191   1.400       .  A
C1190      C1193   1.443       .  S
C1191      C1192   1.399       .  A
C1191      H1203   1.084       .  S
C1192      H1204   1.083       .  S
C1193      C1194   1.208       .  T
C1194      C1195   1.443       .  S
C1195      C1196   1.403       .  A
C1195      C1200   1.399       .  A
C1196      C1197   1.403       .  A
C1196      H1205   1.083   1_556  S
C1197      H1206   1.083       .  S
C1198      C1199   1.404       .  A
C1199      H1207   1.084       .  S
C1209      C1210   1.407       .  A
C1209      C1214   1.407       .  A
C1210      C1211   1.402       .  A
C1210      H1223   1.083       .  S
C1211      C1212   1.401       .  A
C1211      H1224   1.083       .  S
C1212      C1213   1.403       .  A
C1212      C1215   1.451       .  S
C1213      C1214   1.404       .  A
C1213      H1225   1.083       .  S
C1214      H1226   1.082       .  S
C1215      C1216   1.213       .  T
C1216      C1217   1.451       .  S
C1217      C1218   1.403       .  A
C1217      C1222   1.401       .  A
C1218      C1219   1.404       .  A
C1218      H1227   1.083       .  S
C1219      C1220   1.409       .  A
C1219      H1228   1.083       .  S
C1220      C1221   1.409       .  A
C1221      C1222   1.402       .  A
C1221      H1229   1.083       .  S
C1222      H1230   1.083       .  S
C1231      C1232   1.405       .  A
C1231      C1236   1.403       .  A
C1232      C1233   1.406       .  A
C1232      H1245   1.083       .  S
C1233      C1234   1.405       .  A
C1233      H1246   1.083       .  S
C1234      C1235   1.398       .  A
C1234      C1237   1.445       .  S
C1235      C1236   1.395       .  A
C1235      H1247   1.084       .  S
C1236      H1248   1.083       .  S
C1237      C1238   1.209       .  T
C1238      C1239   1.446       .  S
C1239      C1240   1.400       .  A
C1239      C1244   1.402       .  A
C1240      C1241   1.400       .  A
C1240      H1249   1.084       .  S
C1241      C1242   1.409       .  A
C1241      H1250   1.083       .  S
C1242      C1243   1.407       .  A
C1243      C1244   1.402       .  A
C1243      H1251   1.083       .  S
C1244      H1252   1.083       .  S
C1253      C1258   1.407       .  A
C1254      C1255   1.399       .  A
C1254      H1267   1.083       .  S
C1255      H1268   1.084       .  S
C1256      C1257   1.400   1_545  A
C1256      C1259   1.439       .  S
C1257      C1258   1.399       .  A
C1257      H1269   1.084       .  S
C1258      H1270   1.083       .  S
C1259      C1260   1.205       .  T
C1260      C1261   1.438       .  S
C1261      C1262   1.398   1_545  A
C1262      C1263   1.394       .  A
C1262      H1271   1.084       .  S
C1263      C1264   1.405   1_565  A
C1263      H1272   1.083       .  S
C1265      C1266   1.402       .  A
C1265      H1273   1.083       .  S
C1266      H1274   1.083       .  S
C1275      C1276   1.405   1_554  A
C1276      C1277   1.399       .  A
C1276      H1289   1.084       .  S
C1277      H1290   1.083       .  S
C1278      C1279   1.405   1_565  A
C1278      C1281   1.450       .  S
C1279      C1280   1.405       .  A
C1279      H1291   1.083       .  S
C1280      H1292   1.083       .  S
C1281      C1282   1.212       .  T
C1282      C1283   1.450       .  S
C1283      C1284   1.402       .  A
C1284      C1285   1.403       .  A
C1284      H1293   1.083       .  S
C1285      H1294   1.083       .  S
C1286      C1287   1.408   1_554  A
C1287      C1288   1.400       .  A
C1287      H1295   1.083       .  S
C1288      H1296   1.084       .  S
C1297      C1298   1.408       .  A
C1297      C1302   1.408       .  A
C1298      C1299   1.402       .  A
C1298      H1311   1.083       .  S
C1299      C1300   1.402       .  A
C1299      H1312   1.083       .  S
C1300      C1301   1.401       .  A
C1300      C1303   1.447       .  S
C1301      C1302   1.401       .  A
C1301      H1313   1.083       .  S
C1302      H1314   1.083       .  S
C1303      C1304   1.211       .  T
C1304      C1305   1.447       .  S
C1305      C1306   1.401       .  A
C1305      C1310   1.404       .  A
C1306      C1307   1.399       .  A
C1306      H1315   1.084       .  S
C1307      C1308   1.404       .  A
C1307      H1316   1.083       .  S
C1308      C1309   1.405       .  A
C1309      C1310   1.404       .  A
C1309      H1317   1.083       .  S
C1310      H1318   1.083       .  S
C1319      C1320   1.407       .  A
C1319      C1324   1.407       .  A
C1320      C1321   1.399       .  A
C1320      H1333   1.083       .  S
C1321      C1322   1.400       .  A
C1321      H1334   1.084       .  S
C1322      C1323   1.398       .  A
C1322      C1325   1.437       .  S
C1323      C1324   1.396       .  A
C1323      H1335   1.084       .  S
C1324      H1336   1.083       .  S
C1325      C1326   1.205       .  T
C1326      C1327   1.437       .  S
C1327      C1328   1.402       .  A
C1327      C1332   1.397       .  A
C1328      C1329   1.401       .  A
C1328      H1337   1.083       .  S
C1329      C1330   1.404       .  A
C1329      H1338   1.083       .  S
C1330      C1331   1.405       .  A
C1331      C1332   1.394       .  A
C1331      H1339   1.084       .  S
C1332      H1340   1.084       .  S
C1341      C1346   1.408   1_554  A
C1342      C1343   1.401       .  A
C1342      H1355   1.083       .  S
C1343      H1356   1.083       .  S
C1344      C1345   1.402   1_554  A
C1344      C1347   1.448       .  S
C1345      C1346   1.403       .  A
C1345      H1357   1.083       .  S
C1346      H1358   1.083       .  S
C1347      C1348   1.211       .  T
C1348      C1349   1.447       .  S
C1349      C1350   1.399       .  A
C1350      C1351   1.397       .  A
C1350      H1359   1.084   1_554  S
C1351      C1352   1.404       .  A
C1351      H1360   1.083   1_554  S
C1353      C1354   1.406       .  A
C1353      H1361   1.082   1_655  S
C1354      H1362   1.083   1_655  S
C1363      C1364   1.405   1_554  A
C1364      C1365   1.401       .  A
C1364      H1377   1.083       .  S
C1365      C1366   1.401   1_556  A
C1365      H1378   1.083       .  S
C1366      C1369   1.454       .  S
C1367      C1368   1.407       .  A
C1367      H1379   1.083   1_655  S
C1368      H1380   1.083   1_655  S
C1369      C1370   1.215       .  T
C1370      C1371   1.454       .  S
C1371      C1376   1.402   1_554  A
C1372      C1373   1.405       .  A
C1372      H1381   1.083       .  S
C1373      C1374   1.409       .  A
C1373      H1382   1.083       .  S
C1375      C1376   1.404       .  A
C1375      H1383   1.083       .  S
C1376      H1384   1.083       .  S
C1385      C1386   1.405       .  A
C1385      C1390   1.406       .  A
C1386      C1387   1.401       .  A
C1386      H1399   1.084       .  S
C1387      C1388   1.401       .  A
C1387      H1400   1.083       .  S
C1388      C1389   1.404       .  A
C1388      C1391   1.450       .  S
C1389      C1390   1.404       .  A
C1389      H1401   1.083       .  S
C1390      H1402   1.083       .  S
C1391      C1392   1.212       .  T
C1392      C1393   1.450       .  S
C1393      C1394   1.401       .  A
C1393      C1398   1.402       .  A
C1394      C1395   1.402       .  A
C1394      H1403   1.083       .  S
C1395      C1396   1.408       .  A
C1395      H1404   1.083       .  S
C1396      C1397   1.408       .  A
C1397      C1398   1.403       .  A
C1397      H1405   1.083       .  S
C1398      H1406   1.083       .  S
C1407      C1408   1.405       .  A
C1407      C1412   1.406       .  A
C1408      C1409   1.394       .  A
C1408      H1421   1.083       .  S
C1409      C1410   1.398       .  A
C1409      H1422   1.084       .  S
C1410      C1411   1.403       .  A
C1410      C1413   1.442       .  S
C1411      C1412   1.404       .  A
C1411      H1423   1.083       .  S
C1412      H1424   1.083       .  S
C1413      C1414   1.208       .  T
C1414      C1415   1.443       .  S
C1415      C1416   1.400       .  A
C1415      C1420   1.400       .  A
C1416      C1417   1.400       .  A
C1416      H1425   1.083       .  S
C1417      C1418   1.408       .  A
C1417      H1426   1.083       .  S
C1418      C1419   1.407       .  A
C1419      C1420   1.400       .  A
C1419      H1427   1.083       .  S
C1420      H1428   1.084       .  S
C1429      C1430   1.406       .  A
C1430      C1431   1.396       .  A
C1430      H1443   1.083       .  S
C1431      H1444   1.084       .  S
C1432      C1433   1.404   1_556  A
C1432      C1435   1.447       .  S
C1433      C1434   1.405       .  A
C1433      H1445   1.083       .  S
C1434      H1446   1.083       .  S
C1435      C1436   1.210       .  T
C1436      C1437   1.447       .  S
C1437      C1438   1.401       .  A
C1438      C1439   1.402       .  A
C1438      H1447   1.083       .  S
C1439      H1448   1.083       .  S
C1440      C1441   1.407       .  A
C1441      C1442   1.401       .  A
C1441      H1449   1.083       .  S
C1442      H1450   1.083       .  S
C1451      C1456   1.407       .  A
C1452      C1453   1.399       .  A
C1452      H1465   1.083       .  S
C1453      H1466   1.083       .  S
C1454      C1455   1.405       .  A
C1454      C1457   1.452       .  S
C1455      C1456   1.406       .  A
C1455      H1467   1.083       .  S
C1456      H1468   1.082       .  S
C1457      C1458   1.214       .  T
C1458      C1459   1.452       .  S
C1459      C1460   1.403       .  A
C1460      C1461   1.404       .  A
C1460      H1469   1.083       .  S
C1461      C1462   1.408       .  A
C1461      H1470   1.083       .  S
C1463      C1464   1.403       .  A
C1463      H1471   1.083       .  S
C1464      H1472   1.083       .  S
