geometry optimzed in LAMMPS
_audit_creation_date              2020-11-30 
_audit_creation_method            'lammps2cif' 
_symmetry_space_group_name_H-M    'P1' 
_symmetry_Int_Tables_number       1 
_symmetry_cell_setting            triclinic 
loop_ 
_symmetry_equiv_pos_as_xyz 
  x,y,z 
_cell_length_a                    50.48510729 
_cell_length_b                    50.303745685051176 
_cell_length_c                    26.635023322800706 
_cell_angle_alpha                 90.2281453090201 
_cell_angle_beta                  90.10035375250145 
_cell_angle_gamma                 87.34655314967526 
loop_ 
_atom_site_label 
_atom_site_type_symbol 
_atom_site_fract_x 
_atom_site_fract_y 
_atom_site_fract_z 
_atom_site_charge 
O1          O  0.00611065  0.42308699  0.93168593    -0.75000
O2          O  0.00150220  0.45443344  0.87026596    -0.53900
C3          C  0.00490260  0.43025922  0.88521531     0.78700
O4          O  0.42177089  0.99424283  0.09195251    -0.59600
O5          O  0.45289326  0.00491165  0.14905932    -0.52700
C6          C  0.42919890  0.49902066  0.13738515     0.70700
O7          O  0.42317718  0.99130420  0.92214391    -0.74200
O8          O  0.45667619  0.99182335  0.86470366    -0.54800
C9          C  0.43211647  0.99032718  0.87685131     0.76700
O10         O  0.00136945  0.42808030  0.10254897    -0.59300
O11         O  0.99494424  0.46296455  0.15673128    -0.52500
C12         C  0.49789539  0.43791070  0.14731007     0.73300
Zr13       Zr  0.00175298  0.44399248  0.01501081     2.54700
O14         O  0.46860998  0.41053541  0.01530399    -0.79900
O15         O  0.03807422  0.41079084  0.02374178    -0.93300
Zr16       Zr  0.44053222  0.99629298  0.00731625     2.64700
O17         O  0.40823843  0.46187434  0.00744025    -0.98300
O18         O  0.40599556  0.03172029  0.00552001    -0.80300
O19         O  0.47149632  0.46831774  0.96270458    -0.83700
O20         O  0.47035468  0.47136685  0.05947783    -2.18400
O21         O  0.06963263  0.50241048  0.09566054    -0.67100
O22         O  0.03628457  0.50030922  0.15241556    -0.51600
C23         C  0.06104789  0.50061612  0.14099064     0.71700
O24         O  0.48985014  0.07072978  0.91451600    -0.60000
O25         O  0.49125205  0.03584049  0.86058269    -0.52000
C26         C  0.98925462  0.06105133  0.86977704     0.73500
O27         O  0.48778113  0.07734976  0.08469393    -0.71400
O28         O  0.49287606  0.04598544  0.14642466    -0.50100
C29         C  0.48991331  0.07018968  0.13099570     0.74900
O30         O  0.07154057  0.50318370  0.92756643    -0.66700
O31         O  0.03932971  0.49910362  0.86810416    -0.53900
C32         C  0.06369785  0.00115129  0.88183094     0.73300
Zr33       Zr  0.05116732  0.50356728  0.01065530     2.77500
O34         O  0.07784507  0.04274803  0.01381293    -0.97500
O35         O  0.08851145  0.47140919  0.00758468    -0.78300
Zr36       Zr  0.48964351  0.05550313  0.00229436     2.70100
O37         O  0.01820044  0.09315652  0.99869222    -0.79500
O38         O  0.44918309  0.08369049  0.99803506    -0.98600
Zr39       Zr  0.99716018  0.99685636  0.91282693     2.21500
Zr40       Zr  0.49494697  0.50280728  0.10505288     2.11100
O41         O  0.02031142  0.03152654  0.05525304    -2.47300
O42         O  0.02154038  0.02855819  0.95786999    -0.79300
O43         O  0.02646590  0.47483639  0.06108191    -0.71500
O44         O  0.46518149  0.02462651  0.95613667    -2.32500
O45         O  0.02753423  0.47188181  0.96457875    -2.28700
O46         O  0.46429631  0.02776838  0.05371759    -0.73300
H47         H  0.46040079  0.46044948  0.08166128     0.78700
H48         H  0.45340433  0.03401976  0.93296961     0.79800
H49         H  0.02992241  0.04355857  0.07604626     0.82000
H50         H  0.03985406  0.46114100  0.94446591     0.79600
H51         H  0.40373484  0.03621848  0.96957028     0.42700
H52         H  0.43774564  0.07695306  0.02485625     0.41600
H53         H  0.03410062  0.08624803  0.98025505     0.41300
H54         H  0.07801949  0.04818847  0.04957281     0.39300
H55         H  0.08039320  0.45391163  0.00984704     0.42400
H56         H  0.04896755  0.41273026  0.99321485     0.37200
H57         H  0.45168689  0.42060162  0.00845433     0.43300
H58         H  0.41216381  0.45130020  0.03805301     0.39700
H59         H  0.09616591  0.03578021  0.00711954     0.44600
H60         H  0.02966085  0.39354584  0.01921261     0.43300
H61         H  0.39104418  0.47141250  0.01448099     0.43500
H62         H  0.45442362  0.10125824  0.01050551     0.43800
N63         N  0.49991992  0.25136785  0.43425547    -0.36300
N64         N  0.50269826  0.28985071  0.51424047    -0.56900
N65         N  0.50714739  0.24663219  0.58667189    -0.36300
N66         N  0.50349460  0.20832591  0.50611673    -0.56900
C67         C  0.49229941  0.27406080  0.40997889     0.27200
C68         C  0.49193966  0.23072976  0.40615906     0.27200
C69         C  0.50172019  0.26778768  0.61703536     0.27200
C70         C  0.50157564  0.22451275  0.61268332     0.27200
C71         C  0.50574166  0.30620297  0.47474756     0.35900
C72         C  0.50949776  0.30359529  0.55555447     0.35900
C73         C  0.50713757  0.19425142  0.46322845     0.35900
C74         C  0.51016180  0.19172875  0.54428064     0.35900
C75         C  0.47933558  0.26783969  0.36588877    -0.21600
C76         C  0.47887149  0.24048300  0.36368824    -0.21600
C77         C  0.49292438  0.25903498  0.66314450    -0.21600
C78         C  0.49277271  0.23170458  0.66036556    -0.21600
C79         C  0.51437713  0.33052642  0.49099078    -0.22700
C80         C  0.51681354  0.32885998  0.54230900    -0.22700
C81         C  0.51665714  0.16860003  0.47417012    -0.22700
C82         C  0.51826661  0.16692111  0.52569607    -0.22700
C83         C  0.49871759  0.30001710  0.42488351    -0.18000
C84         C  0.49870981  0.20347879  0.41538765    -0.18000
C85         C  0.50578172  0.19799769  0.59539061    -0.18000
C86         C  0.50632421  0.29458376  0.60524141    -0.18000
H87         H  0.47137169  0.28157455  0.33791412     0.14900
H88         H  0.47059825  0.22905033  0.33344841     0.14900
H89         H  0.48744546  0.27108008  0.69559064     0.14900
H90         H  0.48715722  0.21861620  0.69029642     0.14900
H91         H  0.51799691  0.34780923  0.46837127     0.13200
H92         H  0.52261897  0.34465047  0.56715836     0.13200
H93         H  0.52085149  0.15247352  0.44793714     0.13200
H94         H  0.52401337  0.14932819  0.54708630     0.13200
H95         H  0.51295574  0.24997814  0.46452033     0.26400
H96         H  0.51686801  0.24714848  0.55231925     0.26400
N97         N  0.24806032  0.49687891  0.43284006    -0.36300
N98         N  0.28818711  0.48936823  0.51083506    -0.56900
N99         N  0.24645721  0.49139183  0.58595425    -0.36300
N100        N  0.20629410  0.49665520  0.50816817    -0.56900
C101        C  0.26977488  0.49079408  0.40461042     0.27200
C102        C  0.22661089  0.49429602  0.40298166     0.27200
C103        C  0.26761116  0.48332680  0.61424911     0.27200
C104        C  0.22439246  0.48701899  0.61294138     0.27200
C105        C  0.30421990  0.49350606  0.47135958     0.35900
C106        C  0.30330648  0.49132202  0.55245936     0.35900
C107        C  0.19130294  0.50277503  0.46734810     0.35900
C108        C  0.19044905  0.50048973  0.54870110     0.35900
C109        C  0.26204088  0.48482103  0.35601002    -0.21600
C110        C  0.23483400  0.48693760  0.35502829    -0.21600
C111        C  0.25890064  0.47377257  0.65980286    -0.21600
C112        C  0.23164455  0.47611642  0.65900000    -0.21600
C113        C  0.32975413  0.49763933  0.48783995    -0.22700
C114        C  0.32913244  0.49648629  0.53931111    -0.22700
C115        C  0.16568645  0.51026177  0.48194448    -0.22700
C116        C  0.16518545  0.50897799  0.53352436    -0.22700
C117        C  0.29643250  0.49211941  0.42053752    -0.18000
C118        C  0.19983799  0.49954510  0.41699570    -0.18000
C119        C  0.19801167  0.49452161  0.59880932    -0.18000
C120        C  0.29455162  0.48652208  0.60185321    -0.18000
H121        H  0.27466478  0.47963601  0.32432591     0.14900
H122        H  0.22253096  0.48366019  0.32246779     0.14900
H123        H  0.27096188  0.46638723  0.69083350     0.14900
H124        H  0.21864984  0.47083065  0.68928910     0.14900
H125        H  0.34703597  0.50101440  0.46515382     0.13200
H126        H  0.34588852  0.49870827  0.56413257     0.13200
H127        H  0.14902846  0.51573241  0.45788624     0.13200
H128        H  0.14803925  0.51320919  0.55705957     0.13200
H129        H  0.24801634  0.50508169  0.46863786     0.26400
H130        H  0.24716486  0.50248333  0.55325292     0.26400
C131        C  0.08123455  0.49875313  0.18257631     0.01600
C132        C  0.07570734  0.00998369  0.23082726     0.04400
C133        C  0.09532692  0.00920764  0.26859312    -0.11600
C134        C  0.12082558  0.49783624  0.25876725     0.23700
C135        C  0.12641450  0.48621939  0.21166589    -0.12200
C136        C  0.10658471  0.48585963  0.17435653     0.05100
C137        C  0.14163641  0.49812544  0.29841868     0.27500
C138        C  0.15490059  0.02160865  0.30858973    -0.12900
C139        C  0.17368222  0.02216146  0.34770301     0.05600
C140        C  0.17939094  0.49938756  0.37656408    -0.08900
C141        C  0.16676904  0.47564975  0.36552119     0.06500
C142        C  0.14773817  0.47507214  0.32693473    -0.13200
Br143      Br  0.16152417  0.47074677  0.19851200    -0.05300
Br144      Br  0.04165672  0.02699811  0.24711437     0.00300
Br145      Br  0.19197291  0.05421372  0.36144664     0.00800
Br146      Br  0.12977645  0.44276337  0.31350630    -0.03600
Br147      Br  0.11424644  0.46524371  0.11440591     0.00900
Br148      Br  0.08742638  0.02350250  0.33464307    -0.02900
Br149      Br  0.14736501  0.05297865  0.26860517    -0.03800
Br150      Br  0.17631192  0.44370210  0.40249429     0.00200
C151        C  0.17743850  0.49613217  0.63921952     0.01600
C152        C  0.17754365  0.01681495  0.67465500     0.04400
C153        C  0.16001300  0.01721453  0.71575501    -0.11600
C154        C  0.14090599  0.49786970  0.71980543     0.23700
C155        C  0.14022060  0.47742813  0.68341863    -0.12200
C156        C  0.15892982  0.47611995  0.64411026     0.05100
C157        C  0.12152434  0.49897163  0.76210518     0.27500
C158        C  0.12459420  0.98121121  0.80307251    -0.12900
C159        C  0.10565873  0.98173931  0.84203896     0.05600
C160        C  0.08431525  0.50098599  0.84180575    -0.08900
C161        C  0.08252922  0.51986665  0.80284874     0.06500
C162        C  0.10014651  0.51802041  0.76192534    -0.13200
Br163      Br  0.11341318  0.45138550  0.68727116    -0.05300
Br164      Br  0.20130013  0.04540948  0.66588375     0.00300
Br165      Br  0.10881409  0.95557556  0.89468480     0.00800
Br166      Br  0.09476719  0.54142470  0.70520569    -0.03600
Br167      Br  0.15973339  0.44652325  0.59779900     0.00900
Br168      Br  0.16262678  0.04408684  0.76720739    -0.02900
Br169      Br  0.15493580  0.95645026  0.80571251    -0.03800
Br170      Br  0.05836054  0.55035826  0.80889211     0.00200
C171        C  0.40927653  0.49705747  0.17895273     0.01600
C172        C  0.41776652  0.49118260  0.22901274     0.04400
C173        C  0.39917917  0.49020902  0.26816754    -0.11600
C174        C  0.37194685  0.49305072  0.25790838     0.23700
C175        C  0.36305331  0.99778666  0.20827784    -0.12200
C176        C  0.38149822  0.00081993  0.16925806     0.05100
C177        C  0.35269535  0.49259524  0.29982798     0.27500
C178        C  0.34542758  0.46817484  0.32028842    -0.12900
C179        C  0.32778403  0.46798058  0.36108685     0.05600
C180        C  0.31722432  0.49217810  0.38112062    -0.08900
C181        C  0.32512657  0.51655111  0.36165230     0.06500
C182        C  0.34268356  0.51677255  0.32082409    -0.13200
Br183      Br  0.32537102  0.00006742  0.19472090    -0.05300
Br184      Br  0.45446057  0.48278852  0.24625379    -0.01300
Br185      Br  0.31797097  0.43469911  0.38975063     0.00800
Br186      Br  0.35314299  0.05024805  0.29370110    -0.03600
Br187      Br  0.36766580  0.01175530  0.10438965     0.00900
Br188      Br  0.41087629  0.48519816  0.33686436    -0.02900
Br189      Br  0.35962005  0.43510227  0.29218831    -0.03800
Br190      Br  0.31217133  0.54959055  0.39169729     0.00200
C191        C  0.41254995  0.48755026  0.83581260     0.01600
C192        C  0.41186407  0.00558599  0.79521851     0.04400
C193        C  0.39413983  0.00236371  0.75515871    -0.11600
C194        C  0.37463202  0.48340161  0.75827674     0.23700
C195        C  0.37433030  0.46613033  0.79981362    -0.12200
C196        C  0.39396090  0.46741160  0.83731671     0.05100
C197        C  0.35336163  0.48314418  0.71962796     0.27500
C198        C  0.33380398  0.50409193  0.71834586    -0.12900
C199        C  0.31524166  0.50560651  0.67897100     0.05600
C200        C  0.31461203  0.48496111  0.64307125    -0.08900
C201        C  0.33314370  0.46312864  0.64615692     0.06500
C202        C  0.35308222  0.46271550  0.68323241    -0.13200
Br203      Br  0.34643857  0.44141116  0.80624766    -0.05300
Br204      Br  0.43229183  0.03691539  0.79747967     0.00300
Br205      Br  0.29143104  0.53659795  0.67297405     0.00800
Br206      Br  0.38038410  0.43456474  0.68343798    -0.03600
Br207      Br  0.39561102  0.44110035  0.88986919     0.00900
Br208      Br  0.39633602  0.02434554  0.69611557    -0.02900
Br209      Br  0.33207952  0.03026137  0.77107035    -0.03800
Br210      Br  0.33098290  0.43366775  0.59995638     0.00200
C211        C  0.49658382  0.18399065  0.37304469     0.01600
C212        C  0.51217399  0.18663161  0.32952221     0.04400
C213        C  0.00853238  0.17003173  0.28758859    -0.11600
C214        C  0.49209492  0.14811759  0.29149724     0.23700
C215        C  0.47781823  0.14435513  0.33626080    -0.12200
C216        C  0.47869559  0.16320230  0.37546268     0.05100
C217        C  0.49112987  0.12844692  0.24946428     0.27500
C218        C  0.46769180  0.12570825  0.22102782    -0.12900
C219        C  0.46698522  0.10636210  0.18254261     0.05600
C220        C  0.49023909  0.09133180  0.16958866    -0.08900
C221        C  0.01438604  0.09588274  0.19483208     0.06500
C222        C  0.01443990  0.11286160  0.23680178    -0.13200
Br223      Br  0.45802074  0.11277046  0.34501699    -0.05300
Br224      Br  0.03988444  0.21198663  0.32753498     0.00300
Br225      Br  0.43424143  0.10017445  0.14792946     0.00800
Br226      Br  0.04602380  0.11402099  0.27762045    -0.03600
Br227      Br  0.45466909  0.16085681  0.43144505     0.00900
Br228      Br  0.02529853  0.17784240  0.22455004    -0.02900
Br229      Br  0.43673780  0.14865372  0.23406882    -0.03800
Br230      Br  0.04744700  0.08107568  0.16831110     0.00200
C231        C  0.50323172  0.17590872  0.63207987     0.01600
C232        C  0.02386181  0.17012183  0.66750776     0.04400
C233        C  0.02021520  0.15090738  0.70492149    -0.11600
C234        C  0.49595433  0.13763696  0.70748036     0.23700
C235        C  0.47593994  0.14300538  0.67151312    -0.12200
C236        C  0.47966641  0.16188142  0.63360904     0.05100
C237        C  0.49200343  0.11768328  0.74752884     0.27500
C238        C  0.49758757  0.09055286  0.73788101    -0.12900
C239        C  0.49445946  0.07150477  0.77588509     0.05600
C240        C  0.48742073  0.07985033  0.82574540    -0.08900
C241        C  0.97917935  0.10724623  0.83318286     0.06500
C242        C  0.98205302  0.12592561  0.79444093    -0.13200
Br243      Br  0.44325746  0.12466168  0.67483189    -0.05300
Br244      Br  0.05647500  0.18855797  0.66470003     0.00300
Br245      Br  0.49876151  0.03440056  0.75590712     0.00800
Br246      Br  0.97206386  0.16306898  0.80520618    -0.03600
Br247      Br  0.45218598  0.16892523  0.58435564     0.00900
Br248      Br  0.04800510  0.14254382  0.75289215    -0.02900
Br249      Br  0.51004251  0.07976173  0.67192113    -0.03800
Br250      Br  0.96143651  0.11958876  0.89386054     0.00200
C251        C  0.49714305  0.41896830  0.19059701     0.01600
C252        C  0.51126727  0.42371506  0.23560442     0.04400
C253        C  0.51106172  0.40534888  0.27557965    -0.11600
C254        C  0.49728249  0.38174367  0.27083969     0.23700
C255        C  0.98317348  0.37687498  0.22604650    -0.12200
C256        C  0.98252633  0.39566885  0.18680384     0.05100
C257        C  0.49804206  0.36161497  0.31201435     0.27500
C258        C  0.02035617  0.34350420  0.31679789    -0.12900
C259        C  0.02082246  0.32396415  0.35459143     0.05600
C260        C  0.49840202  0.32151397  0.38631735    -0.08900
C261        C  0.47622277  0.33939375  0.38117230     0.06500
C262        C  0.47623502  0.35968802  0.34474098    -0.13200
Br263      Br  0.96487688  0.34419800  0.21880822    -0.05300
Br264      Br  0.53205667  0.45465387  0.24274344     0.00300
Br265      Br  0.05195758  0.30079461  0.36400540     0.00800
Br266      Br  0.44635334  0.38484509  0.33933828    -0.03600
Br267      Br  0.95958358  0.39017254  0.13007287     0.00900
Br268      Br  0.52997682  0.41226095  0.33700911    -0.02900
Br269      Br  0.04983910  0.34528512  0.27118675    -0.03800
Br270      Br  0.44562894  0.33554744  0.42330485     0.00200
C271        C  0.50703353  0.40917779  0.84617607     0.01600
C272        C  0.02294751  0.41298199  0.80251385     0.04400
C273        C  0.02323729  0.39418998  0.76319934    -0.11600
C274        C  0.50835163  0.37116219  0.76771563     0.23700
C275        C  0.49346464  0.36683319  0.81126444    -0.12200
C276        C  0.49235644  0.38595365  0.84999113     0.05100
C277        C  0.50805748  0.35175993  0.72573552     0.27500
C278        C  0.48706903  0.35299054  0.69077061    -0.12900
C279        C  0.48597618  0.33373449  0.65253331     0.05600
C280        C  0.50689539  0.31435596  0.64692283    -0.08900
C281        C  0.52844235  0.31384545  0.68075559     0.06500
C282        C  0.02900568  0.33203522  0.72065121    -0.13200
Br283      Br  0.47428442  0.33465366  0.81721195    -0.05300
Br284      Br  0.04505123  0.44316450  0.79695324     0.00300
Br285      Br  0.45545852  0.33344615  0.60878902     0.00800
Br286      Br  0.05715955  0.32981277  0.76971161    -0.03600
Br287      Br  0.46889397  0.38084264  0.90590551     0.00900
Br288      Br  0.04316929  0.40009436  0.70272400    -0.02900
Br289      Br  0.46012721  0.38141264  0.69489009    -0.03800
Br290      Br  0.05875486  0.28913716  0.67014642     0.00200
O291        O  0.00634965  0.92296598  0.93213340    -0.75000
O292        O  0.00168753  0.95430131  0.87069252    -0.53900
C293        C  0.00514597  0.93013683  0.88565580     0.78700
O294        O  0.42178100  0.49438801  0.09203325    -0.59600
O295        O  0.45294686  0.50477895  0.14922534    -0.52700
C296        C  0.42916734  0.99906017  0.13725021     0.70700
O297        O  0.42310668  0.49145025  0.92224122    -0.74200
O298        O  0.45665713  0.49165488  0.86487039    -0.54800
C299        C  0.43207546  0.49030021  0.87697756     0.76700
O300        O  0.00143427  0.92814061  0.10286539    -0.59300
O301        O  0.99505945  0.96305287  0.15701861    -0.52500
C302        C  0.49784819  0.93778432  0.14720263     0.73300
Zr303      Zr  0.00189000  0.94400550  0.01532257     2.54700
O304        O  0.46858715  0.91053404  0.01537552    -0.79900
O305        O  0.03880864  0.91153041  0.02463272    -0.93300
Zr306      Zr  0.44051644  0.49639290  0.00736920     2.64700
O307        O  0.40844745  0.96159867  0.00706473    -0.98300
O308        O  0.40608679  0.53188236  0.00493820    -0.80300
O309        O  0.47153849  0.96825849  0.96266246    -0.83700
O310        O  0.47037495  0.97130845  0.05948156    -2.18400
O311        O  0.06967495  0.00209166  0.09579135    -0.67100
O312        O  0.03629464  0.00029251  0.15255750    -0.51600
C313        C  0.06106160  0.00042894  0.14112572     0.71700
O314        O  0.48977725  0.57074681  0.91441591    -0.60000
O315        O  0.49099247  0.53584557  0.86052855    -0.52000
C316        C  0.98934902  0.56113500  0.86974742     0.73500
O317        O  0.48797869  0.57734247  0.08471246    -0.71400
O318        O  0.49271291  0.54597230  0.14649064    -0.50100
C319        C  0.48991060  0.57017252  0.13101975     0.74900
O320        O  0.07155325  0.00299761  0.92766717    -0.66700
O321        O  0.03930880  0.99923405  0.86817261    -0.53900
C322        C  0.06370617  0.50116110  0.88174706     0.73300
Zr323      Zr  0.05120615  0.00360865  0.01078658     2.77500
O324        O  0.07863355  0.54210444  0.01411071    -0.97500
O325        O  0.08909081  0.97210204  0.00800434    -0.78300
Zr326      Zr  0.48966349  0.55558987  0.00226555     2.70100
O327        O  0.01801016  0.59336659  0.99945455    -0.79500
O328        O  0.44935106  0.58403362  0.99876373    -0.98600
Zr329      Zr  0.99712645  0.49692689  0.91267628     2.21500
Zr330      Zr  0.49495112  0.00275107  0.10509219     2.11100
O331        O  0.02026422  0.53149202  0.05512937    -2.47300
O332        O  0.02153402  0.52862515  0.95779627    -0.79300
O333        O  0.02650505  0.97492926  0.06128241    -0.71500
O334        O  0.46514760  0.52473428  0.95617455    -2.32500
O335        O  0.02760851  0.97188012  0.96476424    -2.28700
O336        O  0.46429337  0.52787268  0.05372509    -0.73300
H337        H  0.46041777  0.96038187  0.08164282     0.78700
H338        H  0.45334447  0.53412021  0.93304011     0.79800
H339        H  0.02982680  0.54350279  0.07604038     0.82000
H340        H  0.03995159  0.96113971  0.94469939     0.79600
H341        H  0.39061920  0.52358093  0.98953229     0.42700
H342        H  0.43760879  0.57672582  0.02449999     0.41600
H343        H  0.03465525  0.58614210  0.98395704     0.41300
H344        H  0.07498475  0.55039863  0.04730450     0.39300
H345        H  0.08142504  0.95459146  0.01356870     0.42400
H346        H  0.04949510  0.91332241  0.99379979     0.37200
H347        H  0.45211633  0.92016593  0.00405809     0.43300
H348        H  0.41229825  0.95108720  0.03778445     0.39700
H349        H  0.09699176  0.53443425  0.01690385     0.44600
H350        H  0.03069506  0.89407675  0.02100034     0.43300
H351        H  0.39119004  0.97108420  0.01380318     0.43500
H352        H  0.45451201  0.60127692  0.01291911     0.43800
N353        N  0.50013188  0.75128867  0.43413369    -0.36300
N354        N  0.50274965  0.78974900  0.51420566    -0.56900
N355        N  0.50741718  0.74650951  0.58652567    -0.36300
N356        N  0.50395081  0.70822532  0.50588103    -0.56900
C357        C  0.49239367  0.77397408  0.40995640     0.27200
C358        C  0.49218652  0.73064183  0.40602722     0.27200
C359        C  0.50185913  0.76763000  0.61691458     0.27200
C360        C  0.50192167  0.72434582  0.61246874     0.27200
C361        C  0.50582817  0.80610034  0.47472696     0.35900
C362        C  0.50955524  0.80348091  0.55552981     0.35900
C363        C  0.50758013  0.69417806  0.46295826     0.35900
C364        C  0.51065560  0.69161880  0.54400893     0.35900
C365        C  0.47938159  0.76774294  0.36592389    -0.21600
C366        C  0.47901613  0.74038156  0.36365242    -0.21600
C367        C  0.49306004  0.75881183  0.66296913    -0.21600
C368        C  0.49303758  0.73147655  0.66013156    -0.21600
C369        C  0.51450459  0.83040410  0.49098447    -0.22700
C370        C  0.51691705  0.82873169  0.54230826    -0.22700
C371        C  0.51714925  0.66853525  0.47383244    -0.22700
C372        C  0.51878985  0.66683183  0.52535987    -0.22700
C373        C  0.49878052  0.79993328  0.42487347    -0.18000
C374        C  0.49905150  0.70340541  0.41517818    -0.18000
C375        C  0.50623861  0.69784957  0.59513148    -0.18000
C376        C  0.50636232  0.79445740  0.60519520    -0.18000
H377        H  0.47132520  0.78147478  0.33803125     0.14900
H378        H  0.47073211  0.72894161  0.33343377     0.14900
H379        H  0.48749214  0.77081853  0.69541504     0.14900
H380        H  0.48744517  0.71834632  0.69001277     0.14900
H381        H  0.51816511  0.84767793  0.46836949     0.13200
H382        H  0.52274740  0.84450437  0.56717484     0.13200
H383        H  0.52133296  0.65242443  0.44755944     0.13200
H384        H  0.52455785  0.64923113  0.54670963     0.13200
H385        H  0.51321671  0.74992868  0.46432839     0.26400
H386        H  0.51716293  0.74708749  0.55220348     0.26400
N387        N  0.24800684  0.99665902  0.43274196    -0.36300
N388        N  0.28819537  0.98911224  0.51062568    -0.56900
N389        N  0.24649643  0.99107960  0.58587263    -0.36300
N390        N  0.20627095  0.99629825  0.50821010    -0.56900
C391        C  0.26971133  0.99074446  0.40437736     0.27200
C392        C  0.22653989  0.99413480  0.40290657     0.27200
C393        C  0.26767379  0.98299059  0.61409514     0.27200
C394        C  0.22444630  0.98670012  0.61291973     0.27200
C395        C  0.30422555  0.99318311  0.47110984     0.35900
C396        C  0.30337214  0.99090350  0.55221635     0.35900
C397        C  0.19124508  0.00238851  0.46742544     0.35900
C398        C  0.19044262  0.00011843  0.54876974     0.35900
C399        C  0.26195022  0.98496046  0.35570556    -0.21600
C400        C  0.23473997  0.98699852  0.35482552    -0.21600
C401        C  0.25898924  0.97341901  0.65965494    -0.21600
C402        C  0.23173311  0.97577613  0.65893639    -0.21600
C403        C  0.32981605  0.99708828  0.48752706    -0.22700
C404        C  0.32923334  0.99588271  0.53899273    -0.22700
C405        C  0.16562311  0.00982551  0.48206879    -0.22700
C406        C  0.16515714  0.00856100  0.53364310    -0.22700
C407        C  0.29638357  0.99198285  0.42028901    -0.18000
C408        C  0.19976619  0.99925173  0.41705183    -0.18000
C409        C  0.19804341  0.99418582  0.59886702    -0.18000
C410        C  0.29462053  0.98615616  0.60164907    -0.18000
H411        H  0.27455816  0.97992816  0.32392176     0.14900
H412        H  0.22241840  0.98381451  0.32225139     0.14900
H413        H  0.27107005  0.96600103  0.69063291     0.14900
H414        H  0.21875957  0.97046944  0.68924345     0.14900
H415        H  0.34710979  0.00035564  0.46480230     0.13200
H416        H  0.34603915  0.99794871  0.56375530     0.13200
H417        H  0.14894391  0.01527519  0.45804744     0.13200
H418        H  0.14801978  0.01277876  0.55720764     0.13200
H419        H  0.24796945  0.00469382  0.46866660     0.26400
H420        H  0.24718225  0.00218431  0.55318549     0.26400
C421        C  0.08120847  0.99859360  0.18273661     0.01600
C422        C  0.07568889  0.50987589  0.23086996     0.04400
C423        C  0.09529743  0.50895774  0.26867875    -0.11600
C424        C  0.12079412  0.99789531  0.25884811     0.23700
C425        C  0.12632662  0.98599325  0.21197636    -0.12200
C426        C  0.10648800  0.98552790  0.17471921     0.05100
C427        C  0.14155375  0.99812041  0.29855020     0.27500
C428        C  0.15482011  0.52170361  0.30855911    -0.12900
C429        C  0.17363474  0.52233936  0.34762082     0.05600
C430        C  0.17930195  0.99919038  0.37666859    -0.08900
C431        C  0.16651322  0.97553718  0.36571594     0.06500
C432        C  0.14745064  0.97507123  0.32719117    -0.13200
Br433      Br  0.16135775  0.97024425  0.19909670    -0.05300
Br434      Br  0.04161946  0.52679752  0.24731772     0.00300
Br435      Br  0.19180389  0.55447279  0.36128350     0.00800
Br436      Br  0.12915096  0.94292871  0.31401786    -0.03600
Br437      Br  0.11399384  0.96448888  0.11524055     0.00900
Br438      Br  0.08731194  0.52281713  0.33500981    -0.02900
Br439      Br  0.14700160  0.55309334  0.26878864    -0.03800
Br440      Br  0.17587054  0.94354331  0.40268200     0.00200
C441        C  0.17748869  0.99583553  0.63933780     0.01600
C442        C  0.17739775  0.51714158  0.67447970     0.04400
C443        C  0.15985593  0.51749436  0.71555532    -0.11600
C444        C  0.14093295  0.99771140  0.71992617     0.23700
C445        C  0.14013074  0.97731997  0.68345011    -0.12200
C446        C  0.15884085  0.97594246  0.64413480     0.05100
C447        C  0.12154619  0.99888257  0.76224061     0.27500
C448        C  0.12473954  0.48144594  0.80312007    -0.12900
C449        C  0.10580954  0.48192020  0.84209800     0.05600
C450        C  0.08430979  0.00096564  0.84190583    -0.08900
C451        C  0.08266625  0.01996006  0.80312633     0.06500
C452        C  0.10031298  0.01810612  0.76223444    -0.13200
Br453      Br  0.11317085  0.95142877  0.68720433    -0.05300
Br454      Br  0.20109960  0.54578638  0.66575457     0.00300
Br455      Br  0.10921056  0.45592687  0.89498769     0.00800
Br456      Br  0.09513880  0.04170906  0.70575194    -0.03600
Br457      Br  0.15939648  0.94644456  0.59760722     0.00900
Br458      Br  0.16225533  0.54448477  0.76684401    -0.02900
Br459      Br  0.15531947  0.45699442  0.80601009    -0.03800
Br460      Br  0.05858146  0.05052758  0.80928249     0.00200
C461        C  0.40924477  0.99720520  0.17880730     0.01600
C462        C  0.41770986  0.99126912  0.22884772     0.04400
C463        C  0.39909917  0.99023356  0.26794545    -0.11600
C464        C  0.37187334  0.99316253  0.25764850     0.23700
C465        C  0.36309408  0.49746278  0.20850053    -0.12200
C466        C  0.38150522  0.50048281  0.16941381     0.05100
C467        C  0.35260722  0.99264354  0.29952966     0.27500
C468        C  0.34535409  0.96819193  0.31988037    -0.12900
C469        C  0.32773831  0.96793835  0.36071493     0.05600
C470        C  0.31715807  0.99210480  0.38083961    -0.08900
C471        C  0.32507646  0.01650693  0.36152763     0.06500
C472        C  0.34262482  0.01678995  0.32069329    -0.13200
Br473      Br  0.32540344  0.49942681  0.19498043    -0.05300
Br474      Br  0.45441925  0.98299321  0.24615105    -0.01300
Br475      Br  0.31807364  0.93462239  0.38943667     0.00800
Br476      Br  0.35313327  0.55018966  0.29355288    -0.03600
Br477      Br  0.36753549  0.51102513  0.10442801     0.00900
Br478      Br  0.41076096  0.98505475  0.33662378    -0.02900
Br479      Br  0.35955756  0.93515850  0.29163129    -0.03800
Br480      Br  0.31223019  0.04949664  0.39190317     0.00200
C481        C  0.41257862  0.98755925  0.83572298     0.01600
C482        C  0.41194578  0.50553151  0.79524039     0.04400
C483        C  0.39423448  0.50235899  0.75515213    -0.11600
C484        C  0.37464445  0.98328693  0.75824733     0.23700
C485        C  0.37442048  0.96601412  0.79978826    -0.12200
C486        C  0.39408313  0.96733483  0.83721343     0.05100
C487        C  0.35337951  0.98292611  0.71958905     0.27500
C488        C  0.33374830  0.00379891  0.71829406    -0.12900
C489        C  0.31520736  0.00526295  0.67887951     0.05600
C490        C  0.31468321  0.98464109  0.64290049    -0.08900
C491        C  0.33328516  0.96286308  0.64601902     0.06500
C492        C  0.35318873  0.96249857  0.68317430    -0.13200
Br493      Br  0.34654839  0.94129108  0.80643217    -0.05300
Br494      Br  0.43247075  0.53678411  0.79747639     0.00300
Br495      Br  0.29126987  0.03616313  0.67298626     0.00800
Br496      Br  0.38056534  0.93441986  0.68346013    -0.03600
Br497      Br  0.39593823  0.94092456  0.88958977     0.00900
Br498      Br  0.39663998  0.52420137  0.69596770    -0.02900
Br499      Br  0.33223567  0.53056413  0.77110023    -0.03800
Br500      Br  0.33126890  0.93340442  0.59977035     0.00200
C501        C  0.49685574  0.68393539  0.37283795     0.01600
C502        C  0.51235674  0.68660975  0.32921440     0.04400
C503        C  0.00863158  0.67010148  0.28741150    -0.11600
C504        C  0.49210886  0.64820923  0.29116378     0.23700
C505        C  0.47793551  0.64439528  0.33602185    -0.12200
C506        C  0.47894076  0.66317472  0.37531072     0.05100
C507        C  0.49112941  0.62852888  0.24917946     0.27500
C508        C  0.46767246  0.62573667  0.22082237    -0.12900
C509        C  0.46696060  0.60633798  0.18244496     0.05600
C510        C  0.49021910  0.59130718  0.16955808    -0.08900
C511        C  0.01435050  0.59579421  0.19489697     0.06500
C512        C  0.01445439  0.61286718  0.23673493    -0.13200
Br513      Br  0.45814030  0.61281121  0.34480432    -0.05300
Br514      Br  0.03998453  0.71210331  0.32722892     0.00300
Br515      Br  0.43423451  0.60012625  0.14777489     0.00800
Br516      Br  0.04608120  0.61408428  0.27741916    -0.03600
Br517      Br  0.45508439  0.66074825  0.43153032     0.00900
Br518      Br  0.02541232  0.67784605  0.22435264    -0.02900
Br519      Br  0.43671691  0.64868985  0.23378087    -0.03800
Br520      Br  0.04738117  0.58091376  0.16837319     0.00200
C521        C  0.50364792  0.67574336  0.63177374     0.01600
C522        C  0.02397336  0.67010545  0.66735958     0.04400
C523        C  0.02029791  0.65090073  0.70478252    -0.11600
C524        C  0.49616226  0.63762393  0.70739192     0.23700
C525        C  0.47618377  0.64304065  0.67137456    -0.12200
C526        C  0.48001369  0.66183496  0.63336899     0.05100
C527        C  0.49211038  0.61768633  0.74745460     0.27500
C528        C  0.49760692  0.59053892  0.73781265    -0.12900
C529        C  0.49440297  0.57149678  0.77580732     0.05600
C530        C  0.48729427  0.57985253  0.82563078    -0.08900
C531        C  0.97922386  0.60729821  0.83308611     0.06500
C532        C  0.98205392  0.62596190  0.79429820    -0.13200
Br533      Br  0.44339025  0.62489628  0.67479347    -0.05300
Br534      Br  0.05662303  0.68847714  0.66452434     0.00300
Br535      Br  0.49885062  0.53438648  0.75592598     0.00800
Br536      Br  0.97190883  0.66307462  0.80494842    -0.03600
Br537      Br  0.45255498  0.66898123  0.58411965     0.00900
Br538      Br  0.04807619  0.64250623  0.75275867    -0.02900
Br539      Br  0.51005753  0.57971580  0.67186595    -0.03800
Br540      Br  0.96140973  0.61959389  0.89371321     0.00200
C541        C  0.49709638  0.91881970  0.19044514     0.01600
C542        C  0.51128572  0.92351599  0.23538512     0.04400
C543        C  0.51108996  0.90513806  0.27533846    -0.11600
C544        C  0.49725291  0.88156288  0.27063909     0.23700
C545        C  0.98324258  0.87700012  0.22634486    -0.12200
C546        C  0.98259372  0.89580010  0.18713044     0.05100
C547        C  0.49801075  0.86143357  0.31182343     0.27500
C548        C  0.02031155  0.84362245  0.31722181    -0.12900
C549        C  0.02068571  0.82407255  0.35497802     0.05600
C550        C  0.49844676  0.82142897  0.38631709    -0.08900
C551        C  0.47621040  0.83921869  0.38102068     0.06500
C552        C  0.47619097  0.85948094  0.34452047    -0.13200
Br553      Br  0.96498358  0.84430433  0.21902531    -0.05300
Br554      Br  0.53217087  0.95439529  0.24240845     0.00300
Br555      Br  0.05177154  0.80084831  0.36451981     0.00800
Br556      Br  0.44625340  0.88456152  0.33901261    -0.03600
Br557      Br  0.95957872  0.89036532  0.13047979     0.00900
Br558      Br  0.53010321  0.91200251  0.33667537    -0.02900
Br559      Br  0.04986598  0.84535844  0.27176535    -0.03800
Br560      Br  0.44560242  0.83530938  0.42309034     0.00200
C561        C  0.50681600  0.90899476  0.84632658     0.01600
C562        C  0.02316211  0.91296817  0.80285114     0.04400
C563        C  0.02347050  0.89419607  0.76350598    -0.11600
C564        C  0.50823841  0.87096594  0.76787501     0.23700
C565        C  0.49325257  0.86666522  0.81132636    -0.12200
C566        C  0.49213104  0.88577389  0.85008861     0.05100
C567        C  0.50799192  0.85157886  0.72584461     0.27500
C568        C  0.48704339  0.85283880  0.69079782    -0.12900
C569        C  0.48596472  0.83358938  0.65253857     0.05600
C570        C  0.50689252  0.81421802  0.64691843    -0.08900
C571        C  0.52845220  0.81374312  0.68071773     0.06500
C572        C  0.02924944  0.83207256  0.72081176    -0.13200
Br573      Br  0.47391325  0.83457492  0.81705039    -0.05300
Br574      Br  0.04502762  0.94332002  0.79706255     0.00300
Br575      Br  0.45546626  0.83332607  0.60875365     0.00800
Br576      Br  0.05744558  0.82987766  0.76979428    -0.03600
Br577      Br  0.46869730  0.88063468  0.90603385     0.00900
Br578      Br  0.04338655  0.90014981  0.70302709    -0.02900
Br579      Br  0.46019449  0.88135753  0.69473033    -0.03800
Br580      Br  0.05894638  0.78914778  0.67032290     0.00200
O581        O  0.50594436  0.42298010  0.93207104    -0.75000
O582        O  0.50143814  0.45432192  0.87062364    -0.53900
C583        C  0.50476160  0.43015123  0.88560432     0.78700
O584        O  0.92173422  0.99445898  0.09201952    -0.59600
O585        O  0.95291868  0.00479604  0.14919312    -0.52700
C586        C  0.92914605  0.49895981  0.13719659     0.70700
O587        O  0.92326710  0.99126755  0.92212185    -0.74200
O588        O  0.95678642  0.99171361  0.86471575    -0.54800
C589        C  0.93222014  0.99023349  0.87684268     0.76700
O590        O  0.50126642  0.42803640  0.10275060    -0.59300
O591        O  0.49489801  0.46300096  0.15678793    -0.52500
C592        C  0.99800628  0.43789562  0.14716312     0.73300
Zr593      Zr  0.50185073  0.44399923  0.01529390     2.54700
O594        O  0.96808775  0.41094669  0.01455076    -0.79900
O595        O  0.53875893  0.41142769  0.02376319    -0.93300
Zr596      Zr  0.94052689  0.99631053  0.00737662     2.64700
O597        O  0.90857407  0.46148688  0.00735534    -0.98300
O598        O  0.90573355  0.03150949  0.00563418    -0.80300
O599        O  0.97148839  0.46837206  0.96237615    -0.83700
O600        O  0.97028752  0.47131838  0.05930941    -2.18400
O601        O  0.56964654  0.50271984  0.09569654    -0.67100
O602        O  0.53632132  0.50052474  0.15248518    -0.51600
C603        C  0.56107485  0.50091333  0.14103373     0.71700
O604        O  0.98955697  0.07086552  0.91464337    -0.60000
O605        O  0.99118269  0.03597184  0.86072920    -0.52000
C606        C  0.48944385  0.06091686  0.86966122     0.73500
O607        O  0.98813344  0.07733022  0.08486745    -0.71400
O608        O  0.99294443  0.04593874  0.14659459    -0.50100
C609        C  0.99016525  0.07014640  0.13115983     0.74900
O610        O  0.57140678  0.50331453  0.92744129    -0.66700
O611        O  0.53915739  0.49924727  0.86804251    -0.53900
C612        C  0.56361863  0.00114201  0.88171820     0.73300
Zr613      Zr  0.55120330  0.50353305  0.01067016     2.77500
O614        O  0.57842034  0.04222996  0.01273550    -0.97500
O615        O  0.58820067  0.47094903  0.00783741    -0.78300
Zr616      Zr  0.98963217  0.05555943  0.00241982     2.70100
O617        O  0.51835683  0.09299436  0.99889891    -0.79500
O618        O  0.94911524  0.08371982  0.99937347    -0.98600
Zr619      Zr  0.49709453  0.99676023  0.91273977     2.21500
Zr620      Zr  0.99491426  0.50271893  0.10494331     2.11100
O621        O  0.52030694  0.03146533  0.05511688    -2.47300
O622        O  0.52149081  0.02844946  0.95775751    -0.79300
O623        O  0.52652074  0.47489153  0.06131746    -0.71500
O624        O  0.96517765  0.02467849  0.95622873    -2.32500
O625        O  0.52755141  0.47184525  0.96463925    -2.28700
O626        O  0.96428243  0.02779506  0.05378928    -0.73300
H627        H  0.96033774  0.46038822  0.08147805     0.78700
H628        H  0.95337473  0.03406089  0.93308896     0.79800
H629        H  0.52990683  0.04351913  0.07588458     0.82000
H630        H  0.53984881  0.46110197  0.94448324     0.79600
H631        H  0.89939588  0.03209093  0.97044977     0.42700
H632        H  0.93765605  0.07655415  0.02573060     0.41600
H633        H  0.53433441  0.08599825  0.98080458     0.41300
H634        H  0.57753948  0.04872352  0.04785956     0.39300
H635        H  0.57987703  0.45354531  0.00973608     0.42400
H636        H  0.54894547  0.41277819  0.99221750     0.37200
H637        H  0.95168944  0.42079714  0.00350711     0.43300
H638        H  0.91267278  0.45093404  0.03792398     0.39700
H639        H  0.59680779  0.03479997  0.00881181     0.44600
H640        H  0.53049229  0.39399432  0.02140531     0.43300
H641        H  0.89130141  0.47083817  0.01453535     0.43500
H642        H  0.95428565  0.10111639  0.01280831     0.43800
N643        N  0.00029784  0.25129958  0.43410354    -0.36300
N644        N  0.00312431  0.28978858  0.51401064    -0.56900
N645        N  0.00762487  0.24659849  0.58648033    -0.36300
N646        N  0.00397428  0.20828350  0.50600241    -0.56900
C647        C  0.99260498  0.27398412  0.40987246     0.27200
C648        C  0.99223292  0.23065525  0.40612888     0.27200
C649        C  0.00215879  0.26776023  0.61680308     0.27200
C650        C  0.00206422  0.22448488  0.61251621     0.27200
C651        C  0.00617756  0.30612140  0.47449775     0.35900
C652        C  0.00994480  0.30354076  0.55529521     0.35900
C653        C  0.00756536  0.19420051  0.46311651     0.35900
C654        C  0.01068287  0.19169651  0.54415565     0.35900
C655        C  0.97950344  0.26775250  0.36593838    -0.21600
C656        C  0.97903278  0.24039409  0.36378733    -0.21600
C657        C  0.99334770  0.25902016  0.66290851    -0.21600
C658        C  0.99322486  0.23168769  0.66016893    -0.21600
C659        C  0.01485828  0.33043508  0.49069265    -0.22700
C660        C  0.01729248  0.32878858  0.54201550    -0.22700
C661        C  0.01710622  0.16855353  0.47404032    -0.22700
C662        C  0.01877456  0.16688650  0.52556392    -0.22700
C663        C  0.99907099  0.29993829  0.42468556    -0.18000
C664        C  0.99904307  0.20341277  0.41532867    -0.18000
C665        C  0.00630155  0.19796869  0.59526193    -0.18000
C666        C  0.00675289  0.29455095  0.60498033    -0.18000
H667        H  0.97144824  0.28148100  0.33803920     0.14900
H668        H  0.97066400  0.22895034  0.33366334     0.14900
H669        H  0.98784072  0.27107531  0.69532614     0.14900
H670        H  0.98760550  0.21860591  0.69010726     0.14900
H671        H  0.01849031  0.34770368  0.46804288     0.13200
H672        H  0.02311562  0.34458003  0.56684585     0.13200
H673        H  0.02126207  0.15241899  0.44780630     0.13200
H674        H  0.02453420  0.14929629  0.54695118     0.13200
H675        H  0.01342499  0.24991827  0.46423225     0.26400
H676        H  0.01736293  0.24711198  0.55214323     0.26400
N677        N  0.74802958  0.49703208  0.43280816    -0.36300
N678        N  0.78815006  0.48948029  0.51073440    -0.56900
N679        N  0.74640411  0.49147420  0.58594427    -0.36300
N680        N  0.70624557  0.49672476  0.50821301    -0.56900
C681        C  0.76975531  0.49108120  0.40452254     0.27200
C682        C  0.72658700  0.49435059  0.40297806     0.27200
C683        C  0.76754778  0.48329440  0.61417350     0.27200
C684        C  0.72433158  0.48721647  0.61301243     0.27200
C685        C  0.80421600  0.49358605  0.47129066     0.35900
C686        C  0.80331514  0.49112304  0.55236184     0.35900
C687        C  0.69122344  0.50265387  0.46734677     0.35900
C688        C  0.69036370  0.50051651  0.54870889     0.35900
C689        C  0.76203281  0.48510416  0.35591886    -0.21600
C690        C  0.73482395  0.48706029  0.35499633    -0.21600
C691        C  0.75881568  0.47380062  0.65976220    -0.21600
C692        C  0.73156983  0.47630582  0.65906380    -0.21600
C693        C  0.82981396  0.49737983  0.48778669    -0.22700
C694        C  0.82920401  0.49604731  0.53923568    -0.22700
C695        C  0.66555140  0.50996064  0.48187769    -0.22700
C696        C  0.66504718  0.50877604  0.53345955    -0.22700
C697        C  0.79641003  0.49241055  0.42045819    -0.18000
C698        C  0.69979933  0.49946749  0.41701204    -0.18000
C699        C  0.69794133  0.49468047  0.59885906    -0.18000
C700        C  0.79452000  0.48631155  0.60173343    -0.18000
H701        H  0.77466228  0.47998165  0.32421129     0.14900
H702        H  0.72252591  0.48371699  0.32245629     0.14900
H703        H  0.77086116  0.46633213  0.69074749     0.14900
H704        H  0.71857273  0.47106433  0.68937936     0.14900
H705        H  0.84713598  0.50062060  0.46512270     0.13200
H706        H  0.84600910  0.49799349  0.56404755     0.13200
H707        H  0.64886000  0.51525344  0.45777825     0.13200
H708        H  0.64786430  0.51290828  0.55694967     0.13200
H709        H  0.74795937  0.50519708  0.46863611     0.26400
H710        H  0.74713648  0.50252245  0.55319703     0.26400
C711        C  0.58126771  0.49908053  0.18259250     0.01600
C712        C  0.57572371  0.01003200  0.23074340     0.04400
C713        C  0.59531276  0.00916766  0.26857638    -0.11600
C714        C  0.62082241  0.49806904  0.25880428     0.23700
C715        C  0.62644957  0.48655737  0.21164166    -0.12200
C716        C  0.60663410  0.48623166  0.17432010     0.05100
C717        C  0.64161293  0.49828139  0.29845977     0.27500
C718        C  0.65483537  0.02188570  0.30884736    -0.12900
C719        C  0.67360793  0.02238654  0.34798868     0.05600
C720        C  0.67938240  0.49936566  0.37654461    -0.08900
C721        C  0.66672641  0.47566188  0.36539287     0.06500
C722        C  0.64769031  0.47517174  0.32681755    -0.13200
Br723      Br  0.66156447  0.47108474  0.19850613    -0.05300
Br724      Br  0.54154356  0.02669801  0.24724551     0.00300
Br725      Br  0.69186909  0.05443121  0.36197170     0.00800
Br726      Br  0.62973657  0.44289051  0.31307960    -0.03600
Br727      Br  0.61432605  0.46565684  0.11433730     0.00900
Br728      Br  0.58719646  0.02282588  0.33499108    -0.02900
Br729      Br  0.64715892  0.05337193  0.26927699    -0.03800
Br730      Br  0.67624471  0.44363929  0.40214656     0.00200
C731        C  0.67733745  0.49621379  0.63924053     0.01600
C732        C  0.67730197  0.01706138  0.67441266     0.04400
C733        C  0.65968982  0.01752154  0.71539035    -0.11600
C734        C  0.64079324  0.49777010  0.71983472     0.23700
C735        C  0.64021767  0.47731594  0.68344966    -0.12200
C736        C  0.65893948  0.47609746  0.64415410     0.05100
C737        C  0.62132486  0.49887429  0.76200593     0.27500
C738        C  0.62452243  0.98137545  0.80295295    -0.12900
C739        C  0.60560868  0.98185951  0.84194369     0.05600
C740        C  0.58411222  0.50110388  0.84168381    -0.08900
C741        C  0.58244938  0.52001773  0.80277839     0.06500
C742        C  0.60006314  0.51806719  0.76185439    -0.13200
Br743      Br  0.61354723  0.45112857  0.68726173    -0.05300
Br744      Br  0.70084888  0.04580004  0.66529582     0.00300
Br745      Br  0.60887435  0.95575514  0.89467865     0.00800
Br746      Br  0.59479793  0.54148776  0.70512100    -0.03600
Br747      Br  0.65986081  0.44652082  0.59779342     0.00900
Br748      Br  0.66194501  0.04471540  0.76633414    -0.02900
Br749      Br  0.65493700  0.95670927  0.80562215    -0.03800
Br750      Br  0.55844043  0.55063870  0.80883985     0.00200
C751        C  0.90926174  0.49701141  0.17885070     0.01600
C752        C  0.91781579  0.49128800  0.22895431     0.04400
C753        C  0.89927516  0.49041305  0.26820436    -0.11600
C754        C  0.87203684  0.49321984  0.25803806     0.23700
C755        C  0.86307018  0.99755482  0.20860247    -0.12200
C756        C  0.88145479  0.00048998  0.16943875     0.05100
C757        C  0.85282927  0.49281199  0.30001672     0.27500
C758        C  0.84541434  0.46840532  0.32029904    -0.12900
C759        C  0.82768889  0.46823818  0.36096091     0.05600
C760        C  0.81721755  0.49245181  0.38107052    -0.08900
C761        C  0.82529557  0.51681237  0.36182501     0.06500
C762        C  0.84292811  0.51700453  0.32110846    -0.13200
Br763      Br  0.82536386  0.99948224  0.19520676    -0.05300
Br764      Br  0.95453584  0.48301380  0.24621236    -0.01300
Br765      Br  0.81761705  0.43496746  0.38930304     0.00800
Br766      Br  0.85347758  0.05038418  0.29409899    -0.03600
Br767      Br  0.86740718  0.01070549  0.10432375     0.00900
Br768      Br  0.91103418  0.48562972  0.33692244    -0.02900
Br769      Br  0.85951266  0.43531382  0.29213371    -0.03800
Br770      Br  0.81247377  0.54986524  0.39198924     0.00200
C771        C  0.91262697  0.48738135  0.83553518     0.01600
C772        C  0.91187086  0.00548705  0.79527941     0.04400
C773        C  0.89409204  0.00227692  0.75530259    -0.11600
C774        C  0.87453589  0.48305250  0.75831783     0.23700
C775        C  0.87456124  0.46562441  0.79965569    -0.12200
C776        C  0.89427887  0.46701537  0.83698496     0.05100
C777        C  0.85318161  0.48270556  0.71981394     0.27500
C778        C  0.83355596  0.50359452  0.71864434    -0.12900
C779        C  0.81512359  0.50523188  0.67906562     0.05600
C780        C  0.81455966  0.48466491  0.64299748    -0.08900
C781        C  0.83310392  0.46283702  0.64603010     0.06500
C782        C  0.85302000  0.46239445  0.68316240    -0.13200
Br783      Br  0.84702115  0.44051345  0.80606454    -0.05300
Br784      Br  0.93224633  0.03684924  0.79753126     0.00300
Br785      Br  0.79147555  0.53634186  0.67291766     0.00800
Br786      Br  0.88052323  0.43444358  0.68293568    -0.03600
Br787      Br  0.89641642  0.44053227  0.88921886     0.00900
Br788      Br  0.89623623  0.02424525  0.69623406    -0.02900
Br789      Br  0.83189422  0.02999051  0.77175635    -0.03800
Br790      Br  0.83103720  0.43345518  0.59962180     0.00200
C791        C  0.99685430  0.18392470  0.37302216     0.01600
C792        C  0.01233168  0.18660694  0.32937017     0.04400
C793        C  0.50846562  0.17003493  0.28771732    -0.11600
C794        C  0.99229249  0.14803208  0.29156972     0.23700
C795        C  0.97811560  0.14423391  0.33643574    -0.12200
C796        C  0.97900467  0.16310838  0.37558384     0.05100
C797        C  0.99135475  0.12834206  0.24959830     0.27500
C798        C  0.96789407  0.12551771  0.22128486    -0.12900
C799        C  0.96722025  0.10619493  0.18278190     0.05600
C800        C  0.99050775  0.09126188  0.16973443    -0.08900
C801        C  0.51409207  0.09585290  0.19486750     0.06500
C802        C  0.51414635  0.11282170  0.23685635    -0.13200
Br803      Br  0.95842042  0.11259688  0.34537906    -0.05300
Br804      Br  0.53973329  0.21201368  0.32790113     0.00300
Br805      Br  0.93450000  0.09996994  0.14810789     0.00800
Br806      Br  0.54560254  0.11369452  0.27808056    -0.03600
Br807      Br  0.95504299  0.16077358  0.43166724     0.00900
Br808      Br  0.52557916  0.17768445  0.22494331    -0.02900
Br809      Br  0.93688827  0.14837249  0.23439509    -0.03800
Br810      Br  0.54714750  0.08089232  0.16861587     0.00200
C811        C  0.00368874  0.17588742  0.63194468     0.01600
C812        C  0.52345644  0.17016613  0.66755201     0.04400
C813        C  0.51988563  0.15094214  0.70496964    -0.11600
C814        C  0.99624321  0.13766024  0.70738156     0.23700
C815        C  0.97628330  0.14305919  0.67131277    -0.12200
C816        C  0.98008997  0.16191639  0.63340820     0.05100
C817        C  0.99217565  0.11775213  0.74749668     0.27500
C818        C  0.99761760  0.09059202  0.73792101    -0.12900
C819        C  0.99439977  0.07158492  0.77597860     0.05600
C820        C  0.98729805  0.07997540  0.82579450    -0.08900
C821        C  0.47917330  0.10707626  0.83322356     0.06500
C822        C  0.48185997  0.12578267  0.79449085    -0.13200
Br823      Br  0.94355782  0.12478640  0.67447780    -0.05300
Br824      Br  0.55606104  0.18860424  0.66455870     0.00300
Br825      Br  0.99877044  0.03446576  0.75614821     0.00800
Br826      Br  0.47152253  0.16284464  0.80526280    -0.03600
Br827      Br  0.95264726  0.16905944  0.58411638     0.00900
Br828      Br  0.54772036  0.14264337  0.75289017    -0.02900
Br829      Br  0.01003987  0.07970519  0.67198600    -0.03800
Br830      Br  0.46142751  0.11929336  0.89396878     0.00200
C831        C  0.99728352  0.41889916  0.19037957     0.01600
C832        C  0.01124933  0.42368143  0.23556478     0.04400
C833        C  0.01103153  0.40526683  0.27546088    -0.11600
C834        C  0.99739295  0.38159202  0.27049265     0.23700
C835        C  0.48296437  0.37703107  0.22650718    -0.12200
C836        C  0.48227187  0.39580656  0.18723547     0.05100
C837        C  0.99818070  0.36142739  0.31160650     0.27500
C838        C  0.52017462  0.34363785  0.31719201    -0.12900
C839        C  0.52055251  0.32402880  0.35485347     0.05600
C840        C  0.99869677  0.32142453  0.38610243    -0.08900
C841        C  0.97650235  0.33929064  0.38102711     0.06500
C842        C  0.97644060  0.35953951  0.34449851    -0.13200
Br843      Br  0.46466714  0.34434028  0.21940514    -0.05300
Br844      Br  0.03182987  0.45473596  0.24311713     0.00300
Br845      Br  0.55155347  0.30064006  0.36397311     0.00800
Br846      Br  0.94659826  0.38475293  0.33931478    -0.03600
Br847      Br  0.45911335  0.39039403  0.13080342     0.00900
Br848      Br  0.02968129  0.41222673  0.33717077    -0.02900
Br849      Br  0.54968265  0.34538539  0.27162456    -0.03800
Br850      Br  0.94603888  0.33556437  0.42355037     0.00200
C851        C  0.00722031  0.40926778  0.84577798     0.01600
C852        C  0.52281902  0.41286471  0.80298546     0.04400
C853        C  0.52306128  0.39411333  0.76362023    -0.11600
C854        C  0.00865938  0.37115639  0.76742590     0.23700
C855        C  0.99377886  0.36683360  0.81098410    -0.12200
C856        C  0.99264314  0.38597565  0.84968187     0.05100
C857        C  0.00839792  0.35172219  0.72547598     0.27500
C858        C  0.98734601  0.35284256  0.69064342    -0.12900
C859        C  0.98629557  0.33359304  0.65238918     0.05600
C860        C  0.00730451  0.31433291  0.64662936    -0.08900
C861        C  0.02890949  0.31392732  0.68030924     0.06500
C862        C  0.52857203  0.33197360  0.72105683    -0.13200
Br863      Br  0.97454243  0.33468332  0.81688283    -0.05300
Br864      Br  0.54503659  0.44297203  0.79757581     0.00300
Br865      Br  0.95572247  0.33314798  0.60881466     0.00800
Br866      Br  0.55666285  0.32967825  0.77025163    -0.03600
Br867      Br  0.96929821  0.38076071  0.90572546     0.00900
Br868      Br  0.54320202  0.39990977  0.70335498    -0.02900
Br869      Br  0.96024185  0.38109841  0.69499447    -0.03800
Br870      Br  0.55817343  0.28888245  0.67090192     0.00200
O871        O  0.50584092  0.92280886  0.93220224    -0.75000
O872        O  0.50120517  0.95414161  0.87074881    -0.53900
C873        C  0.50455670  0.92997083  0.88574408     0.78700
O874        O  0.92169316  0.49442429  0.09181810    -0.59600
O875        O  0.95291267  0.50463637  0.14902359    -0.52700
C876        C  0.92915739  0.99908750  0.13736784     0.70700
O877        O  0.92317582  0.49131369  0.92195032    -0.74200
O878        O  0.95672059  0.49178456  0.86458656    -0.54800
C879        C  0.93214992  0.49026494  0.87668156     0.76700
O880        O  0.50127189  0.92792117  0.10265216    -0.59300
O881        O  0.49481832  0.96287616  0.15670958    -0.52500
C882        C  0.99810979  0.93797965  0.14746900     0.73300
Zr883      Zr  0.50187080  0.94395427  0.01528218     2.54700
O884        O  0.96852369  0.91065712  0.01470979    -0.79900
O885        O  0.53906393  0.91170433  0.02352653    -0.93300
Zr886      Zr  0.94048235  0.49635657  0.00714405     2.64700
O887        O  0.90864951  0.96141637  0.00756905    -0.98300
O888        O  0.90577190  0.53155383  0.00389174    -0.80300
O889        O  0.97157212  0.96832309  0.96268107    -0.83700
O890        O  0.97036264  0.97131717  0.05956973    -2.18400
O891        O  0.56973178  0.00260644  0.09553664    -0.67100
O892        O  0.53640338  0.00032864  0.15231290    -0.51600
C893        C  0.56115824  0.00075530  0.14086200     0.71700
O894        O  0.98974443  0.57094699  0.91462076    -0.60000
O895        O  0.99116875  0.53605868  0.86068251    -0.52000
C896        C  0.48927418  0.56092589  0.86957110     0.73500
O897        O  0.98806107  0.57722524  0.08503617    -0.71400
O898        O  0.99287611  0.54580027  0.14668791    -0.50100
C899        C  0.99008942  0.57001727  0.13131617     0.74900
O900        O  0.57148396  0.00312996  0.92751763    -0.66700
O901        O  0.53924813  0.99903769  0.86810100    -0.53900
C902        C  0.56353019  0.50133749  0.88163751     0.73300
Zr903      Zr  0.55117688  0.00351136  0.01061744     2.77500
O904        O  0.57924844  0.54164051  0.01353318    -0.97500
O905        O  0.58842227  0.97122180  0.00802560    -0.78300
Zr906      Zr  0.98961521  0.55561218  0.00241293     2.70100
O907        O  0.51811009  0.59327265  0.99824801    -0.79500
O908        O  0.94930310  0.58407278  0.99911839    -0.98600
Zr909      Zr  0.49707075  0.49684733  0.91282439     2.21500
Zr910      Zr  0.99494561  0.00277796  0.10513030     2.11100
O911        O  0.52031968  0.53153076  0.05509080    -2.47300
O912        O  0.52154322  0.52853700  0.95779820    -0.79300
O913        O  0.52650029  0.97487549  0.06127333    -0.71500
O914        O  0.96516824  0.52475607  0.95613381    -2.32500
O915        O  0.52755371  0.97179628  0.96459430    -2.28700
O916        O  0.96422158  0.52781877  0.05369982    -0.73300
H917        H  0.96041964  0.96039513  0.08176632     0.78700
H918        H  0.95337607  0.53415527  0.93299794     0.79800
H919        H  0.52988815  0.54357000  0.07593609     0.82000
H920        H  0.53984948  0.96104207  0.94445398     0.79600
H921        H  0.89006232  0.52274955  0.99062690     0.42700
H922        H  0.93754407  0.57668725  0.02474296     0.41600
H923        H  0.53630936  0.58527152  0.00165859     0.41300
H924        H  0.57538279  0.55035762  0.04626838     0.39300
H925        H  0.58022465  0.95374698  0.00967177     0.42400
H926        H  0.54980983  0.91401754  0.99292714     0.37200
H927        H  0.95179860  0.92064285  0.00601303     0.43300
H928        H  0.91202641  0.95148920  0.03913471     0.39700
H929        H  0.59746914  0.53373399  0.01725998     0.44600
H930        H  0.53113628  0.89422012  0.01890465     0.43300
H931        H  0.89124791  0.97092206  0.01272839     0.43500
H932        H  0.95445793  0.60127329  0.01347333     0.43800
N933        N  0.00025913  0.75141643  0.43415411    -0.36300
N934        N  0.00306890  0.78988608  0.51420372    -0.56900
N935        N  0.00780121  0.74665733  0.58652467    -0.36300
N936        N  0.00413788  0.70837381  0.50589603    -0.56900
C937        C  0.99244511  0.77409627  0.41003333     0.27200
C938        C  0.99231758  0.73076084  0.40606334     0.27200
C939        C  0.00237702  0.76779573  0.61693597     0.27200
C940        C  0.00224741  0.72452221  0.61250567     0.27200
C941        C  0.00597375  0.80625471  0.47469476     0.35900
C942        C  0.00996959  0.80362982  0.55545087     0.35900
C943        C  0.00774748  0.69431149  0.46298132     0.35900
C944        C  0.01082883  0.69176865  0.54403556     0.35900
C945        C  0.97938841  0.76785053  0.36605650    -0.21600
C946        C  0.97907678  0.74048658  0.36375789    -0.21600
C947        C  0.99361330  0.75901936  0.66304588    -0.21600
C948        C  0.99346216  0.73169084  0.66021328    -0.21600
C949        C  0.01463079  0.83058515  0.49085767    -0.22700
C950        C  0.01721536  0.82890870  0.54215065    -0.22700
C951        C  0.01728788  0.66866194  0.47387933    -0.22700
C952        C  0.01892960  0.66696931  0.52540534    -0.22700
C953        C  0.99881872  0.80006654  0.42490782    -0.18000
C954        C  0.99921938  0.70353078  0.41518951    -0.18000
C955        C  0.00643915  0.69801244  0.59516065    -0.18000
C956        C  0.00692069  0.79460308  0.60515032    -0.18000
H957        H  0.97126996  0.78157626  0.33821280     0.14900
H958        H  0.97077411  0.72903688  0.33357262     0.14900
H959        H  0.98813642  0.77104888  0.69551329     0.14900
H960        H  0.98785468  0.71858823  0.69012698     0.14900
H961        H  0.01816463  0.84787893  0.46820846     0.13200
H962        H  0.02306663  0.84470018  0.56695437     0.13200
H963        H  0.02145204  0.65253897  0.44762415     0.13200
H964        H  0.02468182  0.64936870  0.54676845     0.13200
H965        H  0.01338694  0.75006841  0.46428295     0.26400
H966        H  0.01749005  0.74719914  0.55214027     0.26400
N967        N  0.74796435  0.99690922  0.43288995    -0.36300
N968        N  0.78815910  0.98945495  0.51077942    -0.56900
N969        N  0.74647357  0.99126845  0.58602682    -0.36300
N970        N  0.70624214  0.99640332  0.50832841    -0.56900
C971        C  0.76968056  0.99105692  0.40452513     0.27200
C972        C  0.72651139  0.99433114  0.40304333     0.27200
C973        C  0.76766133  0.98316032  0.61420803     0.27200
C974        C  0.72442918  0.98682981  0.61304612     0.27200
C975        C  0.80417429  0.99359441  0.47127456     0.35900
C976        C  0.80333003  0.99125112  0.55237563     0.35900
C977        C  0.69119922  0.00246379  0.46754794     0.35900
C978        C  0.69041150  0.00019778  0.54888937     0.35900
C979        C  0.76193795  0.98526606  0.35584405    -0.21600
C980        C  0.73472990  0.98723005  0.35495907    -0.21600
C981        C  0.75898538  0.97350804  0.65971304    -0.21600
C982        C  0.73172456  0.97585050  0.65901022    -0.21600
C983        C  0.82974910  0.99757115  0.48770918    -0.22700
C984        C  0.82917006  0.99632854  0.53917353    -0.22700
C985        C  0.66556610  0.00984506  0.48219470    -0.22700
C986        C  0.66510838  0.00858332  0.53376735    -0.22700
C987        C  0.79634366  0.99234468  0.42045037    -0.18000
C988        C  0.69973011  0.99938025  0.41717267    -0.18000
C989        C  0.69802233  0.99428794  0.59898644    -0.18000
C990        C  0.79460455  0.98637618  0.60177353    -0.18000
H991        H  0.77455355  0.98027952  0.32404984     0.14900
H992        H  0.72242147  0.98402186  0.32237703     0.14900
H993        H  0.77107390  0.96604695  0.69064616     0.14900
H994        H  0.71875262  0.97048380  0.68927777     0.14900
H995        H  0.84703405  0.00089437  0.46499707     0.13200
H996        H  0.84596835  0.99841486  0.56394692     0.13200
H997        H  0.64887697  0.01526501  0.45817752     0.13200
H998        H  0.64796583  0.01276908  0.55733501     0.13200
H999        H  0.74790412  0.00493685  0.46882170     0.26400
H1000       H  0.74713920  0.00241641  0.55338768     0.26400
C1001       C  0.58134369  0.99897586  0.18243112     0.01600
C1002       C  0.57568175  0.51008813  0.23096337     0.04400
C1003       C  0.59526913  0.50909375  0.26880309    -0.11600
C1004       C  0.62088862  0.99817296  0.25866348     0.23700
C1005       C  0.62655585  0.98662680  0.21153648    -0.12200
C1006       C  0.60674438  0.98619447  0.17421186     0.05100
C1007       C  0.64162361  0.99835777  0.29844179     0.27500
C1008       C  0.65485948  0.52181184  0.30864743    -0.12900
C1009       C  0.67368635  0.52235913  0.34768470     0.05600
C1010       C  0.67928772  0.99935244  0.37674046    -0.08900
C1011       C  0.66664254  0.97566342  0.36542444     0.06500
C1012       C  0.64765374  0.97521993  0.32675595    -0.13200
Br1013     Br  0.66171679  0.97125944  0.19844653    -0.05300
Br1014     Br  0.54157712  0.52690254  0.24751124     0.00300
Br1015     Br  0.69197890  0.55441652  0.36138923     0.00800
Br1016     Br  0.62968517  0.94296479  0.31285735    -0.03600
Br1017     Br  0.61446675  0.96553047  0.11435235     0.00900
Br1018     Br  0.58719286  0.52260156  0.33534425    -0.02900
Br1019     Br  0.64716030  0.55323087  0.26889497    -0.03800
Br1020     Br  0.67613037  0.94359057  0.40205098     0.00200
C1021       C  0.67745362  0.99592659  0.63941660     0.01600
C1022       C  0.67716502  0.51724246  0.67446868     0.04400
C1023       C  0.65966632  0.51747437  0.71560743    -0.11600
C1024       C  0.64075684  0.99788249  0.71975029     0.23700
C1025       C  0.64010871  0.97737621  0.68348447    -0.12200
C1026       C  0.65890064  0.97595569  0.64432092     0.05100
C1027       C  0.62138027  0.99900401  0.76206641     0.27500
C1028       C  0.62435878  0.48124790  0.80291306    -0.12900
C1029       C  0.60542443  0.48184435  0.84187252     0.05600
C1030       C  0.58419965  0.00100687  0.84178218    -0.08900
C1031       C  0.58245622  0.01996099  0.80295571     0.06500
C1032       C  0.60005596  0.01812256  0.76200587    -0.13200
Br1033     Br  0.61319137  0.95143906  0.68721881    -0.05300
Br1034     Br  0.70054335  0.54613237  0.66550383     0.00300
Br1035     Br  0.60852983  0.45573563  0.89461810     0.00800
Br1036     Br  0.59466220  0.04157202  0.70535677    -0.03600
Br1037     Br  0.65967073  0.94632548  0.59809027     0.00900
Br1038     Br  0.66204516  0.54439335  0.76704595    -0.02900
Br1039     Br  0.65466355  0.45644820  0.80569655    -0.03800
Br1040     Br  0.55833140  0.05048225  0.80916652     0.00200
C1041       C  0.90924078  0.99716888  0.17897024     0.01600
C1042       C  0.91776006  0.99142272  0.22907824     0.04400
C1043       C  0.89918594  0.99044112  0.26825121    -0.11600
C1044       C  0.87195435  0.99324154  0.25801255     0.23700
C1045       C  0.86311895  0.49751243  0.20864336    -0.12200
C1046       C  0.88147539  0.50038786  0.16941487     0.05100
C1047       C  0.85271938  0.99280024  0.29993990     0.27500
C1048       C  0.84528658  0.96837935  0.32013121    -0.12900
C1049       C  0.82752986  0.96818511  0.36074395     0.05600
C1050       C  0.81712985  0.99239052  0.38102393    -0.08900
C1051       C  0.82522706  0.01676054  0.36186196     0.06500
C1052       C  0.84282348  0.01697840  0.32109665    -0.13200
Br1053     Br  0.82540301  0.49958122  0.19537227    -0.05300
Br1054     Br  0.95448392  0.98322445  0.24641408    -0.01300
Br1055     Br  0.81728902  0.93488672  0.38871898     0.00800
Br1056     Br  0.85362589  0.55038948  0.29408186    -0.03600
Br1057     Br  0.86739490  0.51066474  0.10437160     0.00900
Br1058     Br  0.91088817  0.98542042  0.33694682    -0.02900
Br1059     Br  0.85944336  0.93530979  0.29195989    -0.03800
Br1060     Br  0.81246315  0.04979401  0.39218612     0.00200
C1061       C  0.91267823  0.98742266  0.83572115     0.01600
C1062       C  0.91174947  0.50545432  0.79510580     0.04400
C1063       C  0.89394279  0.50221686  0.75517944    -0.11600
C1064       C  0.87463852  0.98315984  0.75840233     0.23700
C1065       C  0.87457786  0.96576084  0.79978047    -0.12200
C1066       C  0.89425486  0.96713008  0.83718872     0.05100
C1067       C  0.85331708  0.98283947  0.71982530     0.27500
C1068       C  0.83367380  0.00371142  0.71867045    -0.12900
C1069       C  0.81521078  0.00532088  0.67912683     0.05600
C1070       C  0.81468434  0.98477816  0.64299612    -0.08900
C1071       C  0.83330303  0.96300632  0.64593491     0.06500
C1072       C  0.85319442  0.96255575  0.68312128    -0.13200
Br1073     Br  0.84699218  0.94069914  0.80610801    -0.05300
Br1074     Br  0.93209488  0.53684061  0.79728230     0.00300
Br1075     Br  0.79146395  0.03636025  0.67311809     0.00800
Br1076     Br  0.88070190  0.93460830  0.68295741    -0.03600
Br1077     Br  0.89621137  0.94073576  0.88959601     0.00900
Br1078     Br  0.89597459  0.52422100  0.69613326    -0.02900
Br1079     Br  0.83175811  0.52986695  0.77173639    -0.03800
Br1080     Br  0.83137684  0.93370430  0.59931419     0.00200
C1081       C  0.99700468  0.68404259  0.37286687     0.01600
C1082       C  0.01245449  0.68670276  0.32916770     0.04400
C1083       C  0.50849981  0.67010667  0.28734099    -0.11600
C1084       C  0.99236007  0.64812163  0.29143726     0.23700
C1085       C  0.97819048  0.64437232  0.33633161    -0.12200
C1086       C  0.97912509  0.66325623  0.37545807     0.05100
C1087       C  0.99138786  0.62838360  0.24952035     0.27500
C1088       C  0.96789049  0.62548589  0.22133675    -0.12900
C1089       C  0.96717445  0.60608242  0.18297462     0.05600
C1090       C  0.99044709  0.59112686  0.16992016    -0.08900
C1091       C  0.51408439  0.59588045  0.19472046     0.06500
C1092       C  0.51415531  0.61291360  0.23659365    -0.13200
Br1093     Br  0.95844824  0.61277435  0.34537357    -0.05300
Br1094     Br  0.54003073  0.71186160  0.32759592     0.00300
Br1095     Br  0.93441977  0.59978542  0.14847099     0.00800
Br1096     Br  0.54566155  0.61390392  0.27765546    -0.03600
Br1097     Br  0.95516941  0.66098515  0.43156174     0.00900
Br1098     Br  0.52547190  0.67782100  0.22445418    -0.02900
Br1099     Br  0.93688327  0.64834321  0.23442368    -0.03800
Br1100     Br  0.54712681  0.58091176  0.16841732     0.00200
C1101       C  0.00380681  0.67590556  0.63179965     0.01600
C1102       C  0.52382950  0.66997859  0.66732036     0.04400
C1103       C  0.52015849  0.65082671  0.70484256    -0.11600
C1104       C  0.99630853  0.63768386  0.70724800     0.23700
C1105       C  0.97636324  0.64309685  0.67115321    -0.12200
C1106       C  0.98019389  0.66195445  0.63325058     0.05100
C1107       C  0.99221981  0.61778413  0.74738151     0.27500
C1108       C  0.99768728  0.59062154  0.73785665    -0.12900
C1109       C  0.99444381  0.57162781  0.77592667     0.05600
C1110       C  0.98738300  0.58004148  0.82574651    -0.08900
C1111       C  0.47911733  0.60709872  0.83308893     0.06500
C1112       C  0.48191752  0.62580348  0.79437771    -0.13200
Br1113     Br  0.94362769  0.62483995  0.67427490    -0.05300
Br1114     Br  0.55648018  0.68834308  0.66434639     0.00300
Br1115     Br  0.99864475  0.53449531  0.75608139     0.00800
Br1116     Br  0.47168235  0.66288733  0.80513845    -0.03600
Br1117     Br  0.95276835  0.66912132  0.58393693     0.00900
Br1118     Br  0.54793251  0.64251925  0.75287621    -0.02900
Br1119     Br  0.01015716  0.57970271  0.67197491    -0.03800
Br1120     Br  0.46143137  0.61936923  0.89387277     0.00200
C1121       C  0.99739825  0.91899566  0.19068194     0.01600
C1122       C  0.01143269  0.92373755  0.23580392     0.04400
C1123       C  0.01117472  0.90534171  0.27572424    -0.11600
C1124       C  0.99745940  0.88171074  0.27079231     0.23700
C1125       C  0.48289430  0.87688412  0.22633391    -0.12200
C1126       C  0.48220301  0.89567257  0.18707844     0.05100
C1127       C  0.99816594  0.86156928  0.31192229     0.27500
C1128       C  0.52019032  0.84352473  0.31713471    -0.12900
C1129       C  0.52062450  0.82400247  0.35495582     0.05600
C1130       C  0.99848980  0.82153249  0.38630615    -0.08900
C1131       C  0.97629249  0.83937699  0.38103625     0.06500
C1132       C  0.97633864  0.85966628  0.34460224    -0.13200
Br1133     Br  0.46455225  0.84421992  0.21922780    -0.05300
Br1134     Br  0.03216545  0.95469552  0.24320912     0.00300
Br1135     Br  0.55175783  0.80084779  0.36451013     0.00800
Br1136     Br  0.94652417  0.88490623  0.33923783    -0.03600
Br1137     Br  0.45904750  0.89028576  0.13063056     0.00900
Br1138     Br  0.02988268  0.91225898  0.33739150    -0.02900
Br1139     Br  0.54967458  0.84521237  0.27150068    -0.03800
Br1140     Br  0.94565914  0.83552544  0.42305680     0.00200
C1141       C  0.00750718  0.90916807  0.84618920     0.01600
C1142       C  0.52265156  0.91267543  0.80321431     0.04400
C1143       C  0.52295249  0.89391921  0.76386166    -0.11600
C1144       C  0.00891756  0.87114651  0.76769557     0.23700
C1145       C  0.99406764  0.86676698  0.81126534    -0.12200
C1146       C  0.99294736  0.88586379  0.85003669     0.05100
C1147       C  0.00864390  0.85175269  0.72569142     0.27500
C1148       C  0.98756867  0.85287971  0.69091267    -0.12900
C1149       C  0.98648830  0.83362959  0.65266486     0.05600
C1150       C  0.00749756  0.81437143  0.64683476    -0.08900
C1151       C  0.02912282  0.81396129  0.68047768     0.06500
C1152       C  0.52854908  0.83183753  0.72108501    -0.13200
Br1153     Br  0.97482525  0.83461441  0.81705249    -0.05300
Br1154     Br  0.54487746  0.94278454  0.79793365     0.00300
Br1155     Br  0.95585510  0.83316296  0.60924496     0.00800
Br1156     Br  0.55670063  0.82960235  0.77015476    -0.03600
Br1157     Br  0.96954576  0.88063406  0.90598703     0.00900
Br1158     Br  0.54314228  0.89975080  0.70367824    -0.02900
Br1159     Br  0.96047083  0.88114079  0.69533909    -0.03800
Br1160     Br  0.55827359  0.78891637  0.67063763     0.00200
loop_ 
_geom_bond_atom_site_label_1 
_geom_bond_atom_site_label_2 
_geom_bond_distance 
_geom_bond_site_symmetry_2 
_ccdc_geom_bond_type 
O1          Zr13   2.458   1_556  S
O1            C3   1.291       .  A
O2         Zr329   2.415   1_455  S
O2            C3   1.285       .  A
C3          C851   1.487       .  S
O4          Zr16   2.451       .  S
O4          C296   1.288       .  A
O5         Zr330   2.424       .  S
O5          C296   1.285   1_545  A
C6          O294   1.288       .  A
C6          O295   1.285       .  A
C6          C171   1.504       .  S
O7          Zr16   2.447   1_556  S
O7            C9   1.289       .  A
O8         Zr619   2.429       .  S
O8            C9   1.288       .  A
C9          C481   1.483       .  S
O10         Zr13   2.469       .  S
O10         C592   1.293   1_455  A
O11        Zr620   2.434       .  S
O11         C592   1.288       .  A
C12         O590   1.293       .  A
C12         O591   1.288       .  A
C12         C251   1.500       .  S
Zr13         O15   2.434       .  S
Zr13        O594   2.432   1_455  S
Zr13         O43   2.372       .  S
Zr13         O45   2.378   1_554  S
Zr13        O599   2.374   1_454  S
Zr13        O600   2.366   1_455  S
O14        Zr593   2.431       .  S
O14          H57   0.990       .  S
O15          H56   0.990   1_554  S
O15          H60   0.990       .  S
Zr16         O18   2.435   1_565  S
Zr16        O307   2.435       .  S
Zr16         O44   2.371   1_564  S
Zr16         O46   2.373   1_565  S
Zr16        O310   2.369       .  S
Zr16        O309   2.375   1_554  S
O17        Zr306   2.436       .  S
O17          H58   0.990       .  S
O17          H61   0.990       .  S
O18          H51   0.990   1_554  S
O19        Zr593   2.375   1_556  S
O19        Zr306   2.376   1_556  S
O19        Zr909   2.384       .  S
O20         Zr40   2.383       .  S
O20        Zr593   2.366       .  S
O20        Zr306   2.369       .  S
O20          H47   0.966       .  S
O21         Zr33   2.447       .  S
O21          C23   1.288       .  A
O22        Zr620   2.438   1_455  S
O22          C23   1.288       .  A
C23         C131   1.504       .  S
O24         Zr36   2.463   1_556  S
O24         C606   1.291       .  A
O25        Zr619   2.418   1_545  S
O25         C606   1.283       .  A
C26         O604   1.291       .  A
C26         O605   1.283       .  A
C26         C820   1.513       .  S
O27         Zr36   2.451       .  S
O27          C29   1.289       .  A
O28        Zr330   2.432       .  S
O28          C29   1.289       .  A
C29         C220   1.477       .  S
O30         Zr33   2.442   1_556  S
O30         C322   1.287       .  A
O31        Zr329   2.448   1_455  S
O31         C322   1.291       .  A
C32         O320   1.287       .  A
C32         O321   1.291   1_545  A
C32         C450   1.489       .  S
Zr33         O35   2.428       .  S
Zr33        O324   2.436       .  S
Zr33         O45   2.372   1_554  S
Zr33         O43   2.374       .  S
Zr33        O331   2.367       .  S
Zr33        O332   2.375   1_554  S
O34        Zr323   2.436       .  S
O34          H54   0.990       .  S
O34          H59   0.990       .  S
O35          H55   0.990       .  S
Zr36         O38   2.435   1_554  S
Zr36        O617   2.433   1_554  S
Zr36         O46   2.376       .  S
Zr36         O44   2.368   1_554  S
Zr36        O622   2.374   1_554  S
Zr36        O621   2.381       .  S
O37        Zr616   2.433   1_456  S
O37          H53   0.990       .  S
O38          H52   0.990   1_556  S
O38          H62   0.990   1_556  S
Zr39        O292   2.415   1_655  S
Zr39        O588   2.429       .  S
Zr39        O605   2.419   1_565  S
Zr39        O321   2.448   1_655  S
Zr39         O42   2.379   1_665  S
Zr39        O889   2.384       .  S
Zr39        O624   2.385   1_565  S
Zr39        O335   2.384   1_655  S
Zr40        O295   2.425       .  S
Zr40        O591   2.435       .  S
Zr40        O602   2.438       .  S
Zr40        O318   2.430       .  S
Zr40        O911   2.386       .  S
Zr40        O623   2.378       .  S
Zr40        O336   2.383       .  S
O41        Zr323   2.366       .  S
O41        Zr616   2.382   1_455  S
O41        Zr910   2.385   1_455  S
O41          H49   0.965       .  S
O42        Zr323   2.374   1_556  S
O42        Zr616   2.375   1_456  S
O43        Zr620   2.378   1_455  S
O44        Zr619   2.384   1_545  S
O44          H48   0.966       .  S
O45        Zr329   2.384   1_455  S
O45          H50   0.966       .  S
O46        Zr330   2.383       .  S
N63          C68   1.353       .  A
N63          C67   1.354       .  A
N63          H95   1.040       .  S
N64          C71   1.351       .  A
N64          C72   1.350       .  A
N65          C70   1.354       .  A
N65          C69   1.352       .  A
N65          H96   1.040       .  S
N66          C73   1.350       .  A
N66          C74   1.350       .  A
C67          C75   1.385       .  A
C67          C83   1.415       .  A
C68          C84   1.420       .  A
C68          C76   1.388       .  A
C69          C77   1.387       .  A
C69          C86   1.415       .  A
C70          C85   1.416       .  A
C70          C78   1.387       .  A
C71          C83   1.411       .  A
C71          C79   1.385       .  A
C72          C86   1.412       .  A
C72          C80   1.387       .  A
C73          C81   1.388       .  A
C73          C84   1.416       .  A
C74          C82   1.385       .  A
C74          C85   1.412       .  A
C75          C76   1.378       .  A
C75          H87   1.082       .  S
C76          H88   1.082       .  S
C77          C78   1.377       .  A
C77          H89   1.082       .  S
C78          H90   1.082       .  S
C79          C80   1.375       .  A
C79          H91   1.082       .  S
C80          H92   1.082       .  S
C81          C82   1.377       .  A
C81          H93   1.082       .  S
C82          H94   1.082       .  S
C83         C260   1.494       .  S
C84         C211   1.498       .  S
C85         C231   1.493       .  S
C86         C280   1.489       .  S
N97         C102   1.353       .  A
N97         C101   1.353       .  A
N97         H129   1.037       .  S
N98         C105   1.351       .  A
N98         C106   1.351       .  A
N99         C104   1.354       .  A
N99         C103   1.354       .  A
N99         H130   1.038       .  S
N100        C107   1.352       .  A
N100        C108   1.353       .  A
C101        C109   1.387       .  A
C101        C117   1.415       .  A
C102        C118   1.416       .  A
C102        C110   1.387       .  A
C103        C111   1.387       .  A
C103        C120   1.417       .  A
C104        C119   1.418       .  A
C104        C112   1.387       .  A
C105        C117   1.411       .  A
C105        C113   1.386       .  A
C106        C120   1.414       .  A
C106        C114   1.387       .  A
C107        C115   1.386       .  A
C107        C118   1.416       .  A
C108        C116   1.386       .  A
C108        C119   1.417       .  A
C109        C110   1.373       .  A
C109        H121   1.082       .  S
C110        H122   1.082       .  S
C111        C112   1.376       .  A
C111        H123   1.082       .  S
C112        H124   1.082       .  S
C113        C114   1.373       .  A
C113        H125   1.082       .  S
C114        H126   1.082       .  S
C115        C116   1.376       .  A
C115        H127   1.082       .  S
C116        H128   1.082       .  S
C117        C180   1.486       .  S
C118        C140   1.491       .  S
C119        C151   1.496       .  S
C120        C200   1.492       .  S
C131        C136   1.425       .  A
C131        C422   1.424       .  A
C132        C133   1.410       .  A
C132        C421   1.424   1_545  A
C132       Br144   1.934       .  S
C133        C424   1.406   1_545  A
C133       Br148   1.933       .  S
C134        C137   1.489       .  S
C134        C135   1.405       .  A
C134        C423   1.406       .  A
C135        C136   1.410       .  A
C135       Br143   1.935       .  S
C136       Br147   1.930       .  S
C137        C142   1.411       .  A
C137        C428   1.412       .  A
C138        C139   1.409       .  A
C138        C427   1.411   1_545  A
C138       Br149   1.930       .  S
C139        C430   1.410   1_545  A
C139       Br145   1.928       .  S
C140        C141   1.409       .  A
C140        C429   1.410       .  A
C141        C142   1.407       .  A
C141       Br150   1.930       .  S
C142       Br146   1.929       .  S
C151        C156   1.411       .  A
C151        C442   1.411       .  A
C152        C153   1.408       .  A
C152        C441   1.411   1_545  A
C152       Br164   1.930       .  S
C153        C444   1.411   1_545  A
C153       Br168   1.930       .  S
C154        C157   1.493       .  S
C154        C155   1.412       .  A
C154        C443   1.411       .  A
C155        C156   1.411       .  A
C155       Br163   1.930       .  S
C156       Br167   1.929       .  S
C157        C162   1.410       .  A
C157        C448   1.411       .  A
C158        C159   1.412       .  A
C158        C447   1.411       .  A
C158       Br169   1.930       .  S
C159        C450   1.414   1_565  A
C159       Br165   1.928       .  S
C160        C322   1.489       .  S
C160        C161   1.409       .  A
C160        C449   1.415       .  A
C161        C162   1.408       .  A
C161       Br170   1.922       .  S
C162       Br166   1.930       .  S
C171        C172   1.428       .  A
C171        C466   1.427       .  A
C172        C173   1.407       .  A
C172       Br184   1.936       .  S
C173        C174   1.402       .  A
C173       Br188   1.936       .  S
C174        C177   1.483       .  S
C174        C465   1.404       .  A
C175        C176   1.410   1_565  A
C175        C464   1.404       .  A
C175       Br183   1.934   1_565  S
C176        C461   1.427   1_545  A
C176       Br187   1.935       .  S
C177        C178   1.410       .  A
C177        C182   1.409       .  A
C178        C179   1.407       .  A
C178       Br189   1.929       .  S
C179        C180   1.409       .  A
C179       Br185   1.929       .  S
C180        C181   1.408       .  A
C181        C182   1.405       .  A
C181       Br190   1.929       .  S
C182       Br476   1.930       .  S
Br186       C472   1.930       .  S
C191        C299   1.483       .  S
C191        C196   1.413       .  A
C191        C482   1.411       .  A
C192        C193   1.405       .  A
C192        C481   1.411   1_545  A
C192       Br204   1.924       .  S
C193        C484   1.409   1_545  A
C193       Br208   1.932       .  S
C194        C197   1.487       .  S
C194        C195   1.410       .  A
C194        C483   1.409       .  A
C195        C196   1.409       .  A
C195       Br203   1.930       .  S
C196       Br207   1.929       .  S
C197        C198   1.411       .  A
C197        C202   1.410       .  A
C198        C199   1.405       .  A
C198       Br499   1.931       .  S
C199        C200   1.410       .  A
C199       Br205   1.931       .  S
C200        C201   1.412       .  A
C201        C202   1.408       .  A
C201       Br210   1.929       .  S
C202       Br206   1.930       .  S
Br209       C488   1.931       .  S
C211        C212   1.412       .  A
C211        C216   1.415       .  A
C212        C793   1.406       .  A
C212       Br804   1.932       .  S
C213        C792   1.406       .  A
C213        C794   1.412   1_455  A
C213       Br228   1.932       .  S
C214        C217   1.493       .  S
C214        C215   1.412       .  A
C214        C793   1.412       .  A
C215        C216   1.410       .  A
C215       Br223   1.931       .  S
C216       Br227   1.931       .  S
C217        C218   1.416       .  A
C217        C802   1.413       .  A
C218        C219   1.412       .  A
C218       Br229   1.930       .  S
C219        C220   1.409       .  A
C219       Br225   1.929       .  S
C220        C801   1.406       .  A
C221        C222   1.404       .  A
C221        C800   1.406   1_455  A
C221       Br230   1.930       .  S
C222        C797   1.413   1_455  A
C222       Br226   1.931       .  S
Br224       C792   1.932       .  S
C231        C236   1.412       .  A
C231        C812   1.411       .  A
C232        C233   1.409       .  A
C232        C811   1.411       .  A
C232       Br244   1.928       .  S
C233        C814   1.410   1_455  A
C233       Br248   1.929       .  S
C234        C237   1.488       .  S
C234        C235   1.409       .  A
C234        C813   1.410       .  A
C235        C236   1.408       .  A
C235       Br243   1.930       .  S
C236       Br247   1.930       .  S
C237        C238   1.404       .  A
C237        C822   1.404       .  A
C238        C239   1.411       .  A
C238       Br249   1.934       .  S
C239        C240   1.432       .  A
C239       Br245   1.941       .  S
C240        C606   1.512       .  S
C240        C821   1.426       .  A
C241        C242   1.411       .  A
C241        C820   1.426       .  A
C241       Br250   1.935       .  S
C242        C817   1.404       .  A
C242       Br246   1.933       .  S
C251        C252   1.419       .  A
C251        C836   1.417       .  A
C252        C253   1.413       .  A
C252       Br264   1.926       .  S
C253        C254   1.409       .  A
C253       Br268   1.931       .  S
C254        C257   1.495       .  S
C254        C835   1.408       .  A
C255        C256   1.411       .  A
C255        C834   1.408       .  A
C255       Br263   1.931       .  S
C256        C831   1.417       .  A
C256       Br267   1.929       .  S
C257        C262   1.413       .  A
C257        C838   1.411       .  A
C258        C259   1.409       .  A
C258        C837   1.412   1_455  A
C258       Br269   1.928       .  S
C259        C840   1.409   1_455  A
C259       Br265   1.930       .  S
C260        C261   1.410       .  A
C260        C839   1.409       .  A
C261        C262   1.411       .  A
C261       Br270   1.928       .  S
C262       Br266   1.929       .  S
C271        C583   1.486       .  S
C271        C276   1.416       .  A
C271        C852   1.418       .  A
C272        C273   1.408       .  A
C272        C851   1.418       .  A
C272       Br284   1.932       .  S
C273        C854   1.406       .  A
C273       Br288   1.932       .  S
C274        C277   1.482       .  S
C274        C275   1.406       .  A
C274        C853   1.406       .  A
C275        C276   1.407       .  A
C275       Br283   1.932       .  S
C276       Br287   1.930       .  S
C277        C278   1.409       .  A
C277        C862   1.408       .  A
C278        C279   1.406       .  A
C278       Br289   1.930       .  S
C279        C280   1.411       .  A
C279       Br285   1.931       .  S
C280        C281   1.411       .  A
C281        C862   1.406       .  A
C281       Br870   1.929       .  S
C282        C857   1.408       .  A
C282        C861   1.406       .  A
C282       Br286   1.929       .  S
Br290       C861   1.930       .  S
O291       Zr303   2.458   1_556  S
O291        C293   1.291       .  A
O292        C293   1.285       .  A
C293       C1141   1.487       .  S
O294       Zr306   2.451       .  S
C296        C461   1.503       .  S
O297       Zr306   2.446   1_556  S
O297        C299   1.289       .  A
O298       Zr909   2.429       .  S
O298        C299   1.288       .  A
O300       Zr303   2.468       .  S
O300        C882   1.293   1_455  A
O301       Zr910   2.434   1_565  S
O301        C882   1.288       .  A
C302        O880   1.293       .  A
C302        O881   1.289       .  A
C302        C541   1.500       .  S
Zr303       O884   2.432   1_455  S
Zr303       O305   2.434       .  S
Zr303       O889   2.374   1_454  S
Zr303       O890   2.367   1_455  S
Zr303       O333   2.371       .  S
Zr303       O335   2.378   1_554  S
O304       Zr883   2.431       .  S
O304        H347   0.990       .  S
O305        H346   0.990   1_554  S
O305        H350   0.990       .  S
Zr306       O308   2.434       .  S
Zr306       O334   2.371   1_554  S
Zr306       O336   2.372       .  S
O307        H348   0.990       .  S
O307        H351   0.990       .  S
O308        H341   0.990   1_554  S
O309       Zr883   2.374   1_556  S
O309       Zr619   2.383       .  S
O310       Zr883   2.366       .  S
O310       Zr330   2.383   1_565  S
O310        H337   0.966       .  S
O311       Zr323   2.447       .  S
O311        C313   1.288       .  A
O312       Zr910   2.437   1_455  S
O312        C313   1.288       .  A
C313        C421   1.503   1_545  S
O314       Zr326   2.464   1_556  S
O314        C896   1.291       .  A
O315       Zr909   2.418       .  S
O315        C896   1.282       .  A
C316        O894   1.292       .  A
C316        O895   1.283       .  A
C316       C1110   1.512       .  S
O317       Zr326   2.449       .  S
O317        C319   1.289       .  A
O318        C319   1.288       .  A
C319        C510   1.475       .  S
O320       Zr323   2.442   1_556  S
Zr323       O325   2.428   1_545  S
Zr323       O335   2.372   1_544  S
Zr323       O333   2.373   1_545  S
O324        H344   0.990       .  S
O324        H349   0.990       .  S
O325        H345   0.990       .  S
Zr326       O907   2.433   1_554  S
Zr326       O328   2.435   1_554  S
Zr326       O912   2.374   1_554  S
Zr326       O911   2.382       .  S
Zr326       O336   2.377       .  S
Zr326       O334   2.368   1_554  S
O327       Zr906   2.433   1_456  S
O327        H343   0.990       .  S
O328        H342   0.990   1_556  S
O328        H352   0.990   1_556  S
Zr329       O878   2.430       .  S
Zr329       O895   2.418       .  S
Zr329       O599   2.384       .  S
Zr329       O332   2.380   1_655  S
Zr329       O914   2.385       .  S
Zr330       O881   2.437   1_545  S
Zr330       O892   2.438       .  S
Zr330       O621   2.385       .  S
Zr330       O913   2.377   1_545  S
O331       Zr906   2.381   1_455  S
O331       Zr620   2.385   1_455  S
O331        H339   0.965       .  S
O332       Zr906   2.376   1_456  S
O333       Zr910   2.377   1_465  S
O334       Zr909   2.384       .  S
O334        H338   0.966       .  S
O335        H340   0.966       .  S
N353        C358   1.353       .  A
N353        C357   1.354       .  A
N353        H385   1.040       .  S
N354        C361   1.351       .  A
N354        C362   1.350       .  A
N355        C360   1.354       .  A
N355        C359   1.352       .  A
N355        H386   1.040       .  S
N356        C363   1.350       .  A
N356        C364   1.350       .  A
C357        C365   1.385       .  A
C357        C373   1.415       .  A
C358        C374   1.420       .  A
C358        C366   1.388       .  A
C359        C367   1.387       .  A
C359        C376   1.415       .  A
C360        C375   1.416       .  A
C360        C368   1.387       .  A
C361        C373   1.411       .  A
C361        C369   1.385       .  A
C362        C376   1.412       .  A
C362        C370   1.387       .  A
C363        C371   1.388       .  A
C363        C374   1.416       .  A
C364        C372   1.385       .  A
C364        C375   1.412       .  A
C365        C366   1.378       .  A
C365        H377   1.082       .  S
C366        H378   1.082       .  S
C367        C368   1.377       .  A
C367        H379   1.082       .  S
C368        H380   1.082       .  S
C369        C370   1.375       .  A
C369        H381   1.082       .  S
C370        H382   1.082       .  S
C371        C372   1.378       .  A
C371        H383   1.082       .  S
C372        H384   1.082       .  S
C373        C550   1.494       .  S
C374        C501   1.498       .  S
C375        C521   1.493       .  S
C376        C570   1.489       .  S
N387        C392   1.353       .  A
N387        C391   1.353       .  A
N387        H419   1.037   1_565  S
N388        C395   1.351       .  A
N388        C396   1.351       .  A
N389        C394   1.354       .  A
N389        C393   1.354       .  A
N389        H420   1.038   1_565  S
N390        C397   1.352   1_565  A
N390        C398   1.353   1_565  A
C391        C399   1.387       .  A
C391        C407   1.415       .  A
C392        C408   1.416       .  A
C392        C400   1.387       .  A
C393        C401   1.387       .  A
C393        C410   1.417       .  A
C394        C409   1.418       .  A
C394        C402   1.387       .  A
C395        C407   1.412       .  A
C395        C403   1.386       .  A
C396        C410   1.414       .  A
C396        C404   1.387       .  A
C397        C405   1.386       .  A
C397        C408   1.416   1_545  A
C398        C406   1.386       .  A
C398        C409   1.417   1_545  A
C399        C400   1.373       .  A
C399        H411   1.082       .  S
C400        H412   1.082       .  S
C401        C402   1.376       .  A
C401        H413   1.082       .  S
C402        H414   1.082       .  S
C403        C404   1.373       .  A
C403        H415   1.082   1_565  S
C404        H416   1.082       .  S
C405        C406   1.376       .  A
C405        H417   1.082       .  S
C406        H418   1.082       .  S
C407        C470   1.486       .  S
C408        C430   1.490       .  S
C409        C441   1.497       .  S
C410        C490   1.493       .  S
C421        C426   1.424       .  A
C422        C423   1.410       .  A
C422       Br434   1.934       .  S
C423       Br438   1.933       .  S
C424        C427   1.488       .  S
C424        C425   1.405       .  A
C425        C426   1.410       .  A
C425       Br433   1.935       .  S
C426       Br437   1.930       .  S
C427        C432   1.410       .  A
C428        C429   1.409       .  A
C428       Br439   1.930       .  S
C429       Br435   1.928       .  S
C430        C431   1.409       .  A
C431        C432   1.406       .  A
C431       Br440   1.930       .  S
C432       Br436   1.930       .  S
C441        C446   1.412       .  A
C442        C443   1.408       .  A
C442       Br454   1.930       .  S
C443       Br458   1.930       .  S
C444        C447   1.493       .  S
C444        C445   1.412       .  A
C445        C446   1.411       .  A
C445       Br453   1.930       .  S
C446       Br457   1.929       .  S
C447        C452   1.410   1_565  A
C448        C449   1.412       .  A
C448       Br459   1.930       .  S
C449       Br455   1.928       .  S
C450        C451   1.410       .  A
C451        C452   1.408       .  A
C451       Br460   1.922       .  S
C452       Br456   1.930       .  S
C461        C462   1.427       .  A
C462        C463   1.407       .  A
C462       Br474   1.936       .  S
C463        C464   1.402       .  A
C463       Br478   1.936       .  S
C464        C467   1.482       .  S
C465        C466   1.410       .  A
C465       Br473   1.934       .  S
C466       Br477   1.935       .  S
C467        C468   1.410       .  A
C467        C472   1.409   1_565  A
C468        C469   1.407       .  A
C468       Br479   1.930       .  S
C469        C470   1.409       .  A
C469       Br475   1.929       .  S
C470        C471   1.408   1_565  A
C471        C472   1.405       .  A
C471       Br480   1.929       .  S
C481        C486   1.413       .  A
C482        C483   1.405       .  A
C482       Br494   1.923       .  S
C483       Br498   1.932       .  S
C484        C487   1.487       .  S
C484        C485   1.410       .  A
C485        C486   1.409       .  A
C485       Br493   1.929       .  S
C486       Br497   1.929       .  S
C487        C488   1.411   1_565  A
C487        C492   1.411       .  A
C488        C489   1.405       .  A
C489        C490   1.411   1_545  A
C489       Br495   1.931       .  S
C490        C491   1.412       .  A
C491        C492   1.409       .  A
C491       Br500   1.929       .  S
C492       Br496   1.930       .  S
C501        C502   1.412       .  A
C501        C506   1.415       .  A
C502       C1083   1.406       .  A
C502      Br1094   1.932       .  S
C503       C1082   1.407       .  A
C503       C1084   1.412   1_455  A
C503       Br518   1.932       .  S
C504        C507   1.493       .  S
C504       C1083   1.412       .  A
C504        C505   1.412       .  A
C505        C506   1.409       .  A
C505       Br513   1.931       .  S
C506       Br517   1.931       .  S
C507        C508   1.416       .  A
C507       C1092   1.413       .  A
C508        C509   1.412       .  A
C508       Br519   1.930       .  S
C509        C510   1.409       .  A
C509       Br515   1.929       .  S
C510       C1091   1.405       .  A
C511       C1090   1.406   1_455  A
C511        C512   1.404       .  A
C511       Br520   1.930       .  S
C512       C1087   1.413   1_455  A
C512       Br516   1.931       .  S
Br514      C1082   1.932       .  S
C521       C1102   1.411       .  A
C521        C526   1.412       .  A
C522       C1101   1.411       .  A
C522        C523   1.409       .  A
C522       Br534   1.928       .  S
C523       C1104   1.410   1_455  A
C523       Br538   1.929       .  S
C524        C527   1.488       .  S
C524       C1103   1.410       .  A
C524        C525   1.409       .  A
C525        C526   1.408       .  A
C525       Br533   1.930       .  S
C526       Br537   1.929       .  S
C527        C528   1.404       .  A
C527       C1112   1.404       .  A
C528        C529   1.411       .  A
C528       Br539   1.934       .  S
C529        C530   1.432       .  A
C529       Br535   1.942       .  S
C530        C896   1.512       .  S
C530       C1111   1.426       .  A
C531       C1110   1.426       .  A
C531        C532   1.411       .  A
C531       Br540   1.935       .  S
C532       C1107   1.405       .  A
C532       Br536   1.933       .  S
C541        C542   1.418       .  A
C541       C1126   1.417       .  A
C542        C543   1.413       .  A
C542       Br554   1.926       .  S
C543        C544   1.409       .  A
C543       Br558   1.931       .  S
C544        C547   1.495       .  S
C544       C1125   1.409       .  A
C545       C1124   1.408       .  A
C545        C546   1.411       .  A
C545       Br553   1.931       .  S
C546       C1121   1.417       .  A
C546       Br557   1.929       .  S
C547       C1128   1.412       .  A
C547        C552   1.413       .  A
C548       C1127   1.411   1_455  A
C548        C549   1.409       .  A
C548       Br559   1.928       .  S
C549       C1130   1.409   1_455  A
C549       Br555   1.930       .  S
C550       C1129   1.409       .  A
C550        C551   1.410       .  A
C551        C552   1.411       .  A
C551       Br560   1.928       .  S
C552       Br556   1.929       .  S
C561        C873   1.486       .  S
C561       C1142   1.418       .  A
C561        C566   1.416       .  A
C562       C1141   1.419       .  A
C562        C563   1.407       .  A
C562       Br574   1.932       .  S
C563       C1144   1.406       .  A
C563       Br578   1.932       .  S
C564        C567   1.482       .  S
C564       C1143   1.406       .  A
C564        C565   1.407       .  A
C565        C566   1.407       .  A
C565       Br573   1.932       .  S
C566       Br577   1.930       .  S
C567        C568   1.409       .  A
C567       C1152   1.408       .  A
C568        C569   1.406       .  A
C568       Br579   1.930       .  S
C569        C570   1.411       .  A
C569       Br575   1.930       .  S
C570        C571   1.411       .  A
C571       C1152   1.406       .  A
C571      Br1160   1.930       .  S
C572       C1147   1.408       .  A
C572       C1151   1.406       .  A
C572       Br576   1.929       .  S
Br580      C1151   1.929       .  S
O581       Zr593   2.457   1_556  S
O581        C583   1.291       .  A
O582       Zr909   2.414       .  S
O582        C583   1.285       .  A
O584       Zr596   2.451       .  S
O584        C876   1.288       .  A
O585       Zr910   2.424       .  S
O585        C876   1.285   1_545  A
C586        O874   1.288       .  A
C586        O875   1.285       .  A
C586        C751   1.504       .  S
O587       Zr596   2.447   1_556  S
O587        C589   1.289       .  A
O588        C589   1.288       .  A
C589       C1061   1.484       .  S
O590       Zr593   2.468       .  S
C592        C831   1.501       .  S
Zr593       O595   2.434       .  S
Zr593       O623   2.372       .  S
Zr593       O625   2.378   1_554  S
O594        H637   0.990       .  S
O595        H636   0.990   1_554  S
O595        H640   0.990       .  S
Zr596       O887   2.436       .  S
Zr596       O598   2.436   1_565  S
Zr596       O890   2.369       .  S
Zr596       O889   2.376   1_554  S
Zr596       O624   2.372   1_564  S
Zr596       O626   2.373   1_565  S
O597       Zr886   2.436       .  S
O597        H638   0.990       .  S
O597        H641   0.990       .  S
O598        H631   0.990   1_554  S
O599       Zr886   2.375   1_556  S
O600       Zr886   2.369       .  S
O600       Zr620   2.383       .  S
O600        H627   0.966       .  S
O601       Zr613   2.447       .  S
O601        C603   1.288       .  A
O602        C603   1.288       .  A
C603        C711   1.504       .  S
O604       Zr616   2.464   1_556  S
O607       Zr616   2.450       .  S
O607        C609   1.289       .  A
O608       Zr910   2.430       .  S
O608        C609   1.288       .  A
C609        C800   1.476       .  S
O610       Zr613   2.442   1_556  S
O610        C902   1.287       .  A
O611       Zr909   2.447       .  S
O611        C902   1.291       .  A
C612        O900   1.287       .  A
C612        O901   1.291   1_545  A
C612       C1030   1.488       .  S
Zr613       O904   2.436       .  S
Zr613       O615   2.428       .  S
Zr613       O911   2.367       .  S
Zr613       O912   2.375   1_554  S
Zr613       O625   2.372   1_554  S
Zr613       O623   2.374       .  S
O614       Zr903   2.436       .  S
O614        H634   0.990       .  S
O614        H639   0.990       .  S
O615        H635   0.990       .  S
Zr616       O618   2.435   1_554  S
Zr616       O626   2.376       .  S
Zr616       O624   2.368   1_554  S
O617        H633   0.990       .  S
O618        H632   0.990   1_556  S
O618        H642   0.990   1_556  S
Zr619       O872   2.415       .  S
Zr619       O901   2.447       .  S
Zr619       O622   2.378   1_565  S
Zr619       O915   2.383       .  S
Zr620       O875   2.423       .  S
Zr620       O898   2.430       .  S
Zr620       O916   2.384       .  S
O621       Zr903   2.367       .  S
O621        H629   0.965       .  S
O622       Zr903   2.374   1_556  S
O624        H628   0.966       .  S
O625       Zr909   2.384       .  S
O625        H630   0.966       .  S
O626       Zr910   2.382       .  S
N643        C648   1.353   1_455  A
N643        C647   1.354   1_455  A
N643        H675   1.040       .  S
N644        C651   1.351       .  A
N644        C652   1.349       .  A
N645        C650   1.354       .  A
N645        C649   1.352       .  A
N645        H676   1.040       .  S
N646        C653   1.350       .  A
N646        C654   1.350       .  A
C647        C655   1.385       .  A
C647        C663   1.415       .  A
C648        C664   1.420       .  A
C648        C656   1.388       .  A
C649        C657   1.387   1_455  A
C649        C666   1.415       .  A
C650        C665   1.416       .  A
C650        C658   1.387   1_455  A
C651        C663   1.411   1_455  A
C651        C659   1.385       .  A
C652        C666   1.412       .  A
C652        C660   1.387       .  A
C653        C661   1.388       .  A
C653        C664   1.416   1_455  A
C654        C662   1.385       .  A
C654        C665   1.412       .  A
C655        C656   1.378       .  A
C655        H667   1.082       .  S
C656        H668   1.082       .  S
C657        C658   1.377       .  A
C657        H669   1.082       .  S
C658        H670   1.082       .  S
C659        C660   1.375       .  A
C659        H671   1.082       .  S
C660        H672   1.082       .  S
C661        C662   1.377       .  A
C661        H673   1.082       .  S
C662        H674   1.082       .  S
C663        C840   1.494       .  S
C664        C791   1.498       .  S
C665        C811   1.493       .  S
C666        C860   1.488       .  S
N677        C682   1.353       .  A
N677        C681   1.353       .  A
N677        H709   1.037       .  S
N678        C685   1.351       .  A
N678        C686   1.351       .  A
N679        C684   1.354       .  A
N679        C683   1.354       .  A
N679        H710   1.038       .  S
N680        C687   1.352       .  A
N680        C688   1.353       .  A
C681        C689   1.387       .  A
C681        C697   1.415       .  A
C682        C698   1.416       .  A
C682        C690   1.387       .  A
C683        C691   1.387       .  A
C683        C700   1.417       .  A
C684        C699   1.418       .  A
C684        C692   1.387       .  A
C685        C697   1.411       .  A
C685        C693   1.386       .  A
C686        C700   1.414       .  A
C686        C694   1.387       .  A
C687        C695   1.386       .  A
C687        C698   1.416       .  A
C688        C696   1.386       .  A
C688        C699   1.417       .  A
C689        C690   1.373       .  A
C689        H701   1.082       .  S
C690        H702   1.082       .  S
C691        C692   1.376       .  A
C691        H703   1.082       .  S
C692        H704   1.082       .  S
C693        C694   1.373       .  A
C693        H705   1.082       .  S
C694        H706   1.082       .  S
C695        C696   1.376       .  A
C695        H707   1.082       .  S
C696        H708   1.082       .  S
C697        C760   1.486       .  S
C698        C720   1.490       .  S
C699        C731   1.497       .  S
C700        C780   1.492       .  S
C711       C1002   1.424       .  A
C711        C716   1.425       .  A
C712       C1001   1.424   1_545  A
C712        C713   1.410       .  A
C712       Br724   1.934       .  S
C713       C1004   1.406   1_545  A
C713       Br728   1.933       .  S
C714        C717   1.488       .  S
C714       C1003   1.406       .  A
C714        C715   1.405       .  A
C715        C716   1.410       .  A
C715       Br723   1.935       .  S
C716       Br727   1.930       .  S
C717       C1008   1.411       .  A
C717        C722   1.410       .  A
C718       C1007   1.411   1_545  A
C718        C719   1.409       .  A
C718       Br729   1.930       .  S
C719       C1010   1.410   1_545  A
C719       Br725   1.928       .  S
C720       C1009   1.410       .  A
C720        C721   1.409       .  A
C721        C722   1.407       .  A
C721       Br730   1.930       .  S
C722       Br726   1.929       .  S
C731       C1022   1.411       .  A
C731        C736   1.412       .  A
C732       C1021   1.411   1_545  A
C732        C733   1.408       .  A
C732       Br744   1.930       .  S
C733       C1024   1.411   1_545  A
C733       Br748   1.930       .  S
C734        C737   1.493       .  S
C734       C1023   1.411       .  A
C734        C735   1.412       .  A
C735        C736   1.411       .  A
C735       Br743   1.930       .  S
C736       Br747   1.929       .  S
C737       C1028   1.411       .  A
C737        C742   1.410       .  A
C738       C1027   1.411       .  A
C738        C739   1.411       .  A
C738       Br749   1.930       .  S
C739       C1030   1.414   1_565  A
C739       Br745   1.928       .  S
C740        C902   1.488       .  S
C740       C1029   1.414       .  A
C740        C741   1.409       .  A
C741        C742   1.408       .  A
C741       Br750   1.922       .  S
C742       Br746   1.930       .  S
C751        C752   1.428       .  A
C751       C1046   1.427       .  A
C752        C753   1.407       .  A
C752       Br764   1.936       .  S
C753        C754   1.402       .  A
C753       Br768   1.936       .  S
C754        C757   1.482       .  S
C754       C1045   1.404       .  A
C755       C1044   1.404       .  A
C755        C756   1.410   1_565  A
C755       Br763   1.934       .  S
C756       C1041   1.427   1_545  A
C756       Br767   1.935       .  S
C757        C758   1.410       .  A
C757        C762   1.409       .  A
C758        C759   1.406       .  A
C758       Br769   1.929       .  S
C759        C760   1.409       .  A
C759       Br765   1.929       .  S
C760        C761   1.408       .  A
C761        C762   1.405       .  A
C761       Br770   1.929       .  S
C762      Br1056   1.930       .  S
Br766      C1052   1.930       .  S
C771        C879   1.484       .  S
C771       C1062   1.411       .  A
C771        C776   1.413       .  A
C772       C1061   1.411   1_545  A
C772        C773   1.405       .  A
C772       Br784   1.924       .  S
C773       C1064   1.409   1_545  A
C773       Br788   1.932       .  S
C774        C777   1.487       .  S
C774       C1063   1.409       .  A
C774        C775   1.410       .  A
C775        C776   1.410       .  A
C775       Br783   1.930       .  S
C776       Br787   1.929       .  S
C777        C778   1.411       .  A
C777        C782   1.411       .  A
C778        C779   1.405       .  A
C778      Br1079   1.931       .  S
C779        C780   1.410       .  A
C779       Br785   1.931       .  S
C780        C781   1.412       .  A
C781        C782   1.409       .  A
C781       Br790   1.929       .  S
C782       Br786   1.930       .  S
Br789      C1068   1.931       .  S
C791        C792   1.412   1_655  A
C791        C796   1.415       .  A
C793       Br808   1.932       .  S
C794        C797   1.493       .  S
C794        C795   1.412       .  A
C795        C796   1.409       .  A
C795       Br803   1.931       .  S
C796       Br807   1.931       .  S
C797        C798   1.415       .  A
C798        C799   1.412       .  A
C798       Br809   1.930       .  S
C799        C800   1.409       .  A
C799       Br805   1.929       .  S
C801        C802   1.404       .  A
C801       Br810   1.930       .  S
C802       Br806   1.931       .  S
C811        C816   1.412   1_455  A
C812        C813   1.409       .  A
C812       Br824   1.928       .  S
C813       Br828   1.929       .  S
C814        C817   1.488       .  S
C814        C815   1.409       .  A
C815        C816   1.408       .  A
C815       Br823   1.930       .  S
C816       Br827   1.930       .  S
C817        C818   1.404       .  A
C818        C819   1.411       .  A
C818       Br829   1.934   1_655  S
C819        C820   1.432       .  A
C819       Br825   1.941       .  S
C821        C822   1.410       .  A
C821       Br830   1.935       .  S
C822       Br826   1.933       .  S
C831        C832   1.419   1_655  A
C832        C833   1.413       .  A
C832       Br844   1.925       .  S
C833        C834   1.409   1_455  A
C833       Br848   1.932       .  S
C834        C837   1.495       .  S
C835        C836   1.411       .  A
C835       Br843   1.932       .  S
C836       Br847   1.929       .  S
C837        C842   1.412       .  A
C838        C839   1.409       .  A
C838       Br849   1.929       .  S
C839       Br845   1.930       .  S
C840        C841   1.410       .  A
C841        C842   1.411       .  A
C841       Br850   1.928       .  S
C842       Br846   1.929       .  S
C851        C856   1.416   1_455  A
C852        C853   1.407       .  A
C852       Br864   1.932       .  S
C853       Br868   1.932       .  S
C854        C857   1.482       .  S
C854        C855   1.406   1_455  A
C855        C856   1.407       .  A
C855       Br863   1.932       .  S
C856       Br867   1.930       .  S
C857        C858   1.409   1_455  A
C858        C859   1.405       .  A
C858       Br869   1.930       .  S
C859        C860   1.411   1_655  A
C859       Br865   1.930       .  S
C860        C861   1.410       .  A
C862       Br866   1.929       .  S
O871       Zr883   2.456   1_556  S
O871        C873   1.291       .  A
O872        C873   1.285       .  A
O874       Zr886   2.452       .  S
C876       C1041   1.504       .  S
O877       Zr886   2.447   1_556  S
O877        C879   1.289       .  A
O878        C879   1.288       .  A
O880       Zr883   2.467       .  S
C882       C1121   1.500       .  S
Zr883       O885   2.434       .  S
Zr883       O913   2.372       .  S
Zr883       O915   2.378   1_554  S
O884        H927   0.990       .  S
O885        H926   0.990   1_554  S
O885        H930   0.990       .  S
Zr886       O888   2.434       .  S
Zr886       O914   2.372   1_554  S
Zr886       O916   2.374       .  S
O887        H928   0.990       .  S
O887        H931   0.990       .  S
O888        H921   0.990   1_554  S
O890       Zr910   2.383   1_565  S
O890        H917   0.966       .  S
O891       Zr903   2.446       .  S
O891        C893   1.288       .  A
O892        C893   1.288       .  A
C893       C1001   1.504   1_545  S
O894       Zr906   2.465   1_556  S
O897       Zr906   2.450       .  S
O897        C899   1.289       .  A
O898        C899   1.288       .  A
C899       C1090   1.476       .  S
O900       Zr903   2.441   1_556  S
Zr903       O905   2.428   1_545  S
Zr903       O915   2.372   1_544  S
Zr903       O913   2.374   1_545  S
O904        H924   0.990       .  S
O904        H929   0.990       .  S
O905        H925   0.990       .  S
Zr906       O908   2.435   1_554  S
Zr906       O916   2.377       .  S
Zr906       O914   2.368   1_554  S
O907        H923   0.990   1_556  S
O908        H922   0.990   1_556  S
O908        H932   0.990   1_556  S
Zr909       O912   2.380       .  S
O911        H919   0.965       .  S
O914        H918   0.966       .  S
O915        H920   0.966       .  S
N933        C938   1.353   1_455  A
N933        C937   1.354   1_455  A
N933        H965   1.040       .  S
N934        C941   1.351       .  A
N934        C942   1.350       .  A
N935        C940   1.354       .  A
N935        C939   1.352       .  A
N935        H966   1.040       .  S
N936        C943   1.350       .  A
N936        C944   1.350       .  A
C937        C945   1.385       .  A
C937        C953   1.415       .  A
C938        C954   1.419       .  A
C938        C946   1.388       .  A
C939        C947   1.387   1_455  A
C939        C956   1.415       .  A
C940        C955   1.416       .  A
C940        C948   1.387   1_455  A
C941        C953   1.411   1_455  A
C941        C949   1.385       .  A
C942        C956   1.412       .  A
C942        C950   1.387       .  A
C943        C951   1.388       .  A
C943        C954   1.416   1_455  A
C944        C952   1.385       .  A
C944        C955   1.412       .  A
C945        C946   1.378       .  A
C945        H957   1.082       .  S
C946        H958   1.082       .  S
C947        C948   1.377       .  A
C947        H959   1.082       .  S
C948        H960   1.082       .  S
C949        C950   1.375       .  A
C949        H961   1.082       .  S
C950        H962   1.082       .  S
C951        C952   1.377       .  A
C951        H963   1.082       .  S
C952        H964   1.082       .  S
C953       C1130   1.493       .  S
C954       C1081   1.498       .  S
C955       C1101   1.493       .  S
C956       C1150   1.489       .  S
N967        C972   1.353       .  A
N967        C971   1.353       .  A
N967        H999   1.037   1_565  S
N968        C975   1.351       .  A
N968        C976   1.351       .  A
N969        C974   1.354       .  A
N969        C973   1.354       .  A
N969       H1000   1.038   1_565  S
N970        C977   1.352   1_565  A
N970        C978   1.353   1_565  A
C971        C979   1.387       .  A
C971        C987   1.415       .  A
C972        C988   1.415       .  A
C972        C980   1.387       .  A
C973        C981   1.387       .  A
C973        C990   1.417       .  A
C974        C989   1.418       .  A
C974        C982   1.387       .  A
C975        C987   1.412       .  A
C975        C983   1.386       .  A
C976        C990   1.414       .  A
C976        C984   1.387       .  A
C977        C985   1.386       .  A
C977        C988   1.416   1_545  A
C978        C986   1.386       .  A
C978        C989   1.417   1_545  A
C979        C980   1.373       .  A
C979        H991   1.082       .  S
C980        H992   1.082       .  S
C981        C982   1.376       .  A
C981        H993   1.082       .  S
C982        H994   1.082       .  S
C983        C984   1.373       .  A
C983        H995   1.082   1_565  S
C984        H996   1.082       .  S
C985        C986   1.376       .  A
C985        H997   1.082       .  S
C986        H998   1.082       .  S
C987       C1050   1.486       .  S
C988       C1010   1.490       .  S
C989       C1021   1.497       .  S
C990       C1070   1.493       .  S
C1001      C1006   1.425       .  A
C1002      C1003   1.410       .  A
C1002     Br1014   1.934       .  S
C1003     Br1018   1.933       .  S
C1004      C1007   1.488       .  S
C1004      C1005   1.405       .  A
C1005      C1006   1.410       .  A
C1005     Br1013   1.935       .  S
C1006     Br1017   1.930       .  S
C1007      C1012   1.410       .  A
C1008      C1009   1.409       .  A
C1008     Br1019   1.930       .  S
C1009     Br1015   1.928       .  S
C1010      C1011   1.409       .  A
C1011      C1012   1.407       .  A
C1011     Br1020   1.930       .  S
C1012     Br1016   1.929       .  S
C1021      C1026   1.411       .  A
C1022      C1023   1.408       .  A
C1022     Br1034   1.930       .  S
C1023     Br1038   1.930       .  S
C1024      C1027   1.493       .  S
C1024      C1025   1.412       .  A
C1025      C1026   1.411       .  A
C1025     Br1033   1.930       .  S
C1026     Br1037   1.929       .  S
C1027      C1032   1.410   1_565  A
C1028      C1029   1.411       .  A
C1028     Br1039   1.930       .  S
C1029     Br1035   1.928       .  S
C1030      C1031   1.409       .  A
C1031      C1032   1.408       .  A
C1031     Br1040   1.922       .  S
C1032     Br1036   1.930       .  S
C1041      C1042   1.428       .  A
C1042      C1043   1.407       .  A
C1042     Br1054   1.936       .  S
C1043      C1044   1.402       .  A
C1043     Br1058   1.936       .  S
C1044      C1047   1.482       .  S
C1045      C1046   1.410       .  A
C1045     Br1053   1.934       .  S
C1046     Br1057   1.935       .  S
C1047      C1048   1.410       .  A
C1047      C1052   1.409   1_565  A
C1048      C1049   1.406       .  A
C1048     Br1059   1.930       .  S
C1049      C1050   1.409       .  A
C1049     Br1055   1.929       .  S
C1050      C1051   1.408   1_565  A
C1051      C1052   1.404       .  A
C1051     Br1060   1.929       .  S
C1061      C1066   1.413       .  A
C1062      C1063   1.405       .  A
C1062     Br1074   1.924       .  S
C1063     Br1078   1.932       .  S
C1064      C1067   1.487       .  S
C1064      C1065   1.410       .  A
C1065      C1066   1.409       .  A
C1065     Br1073   1.929       .  S
C1066     Br1077   1.930       .  S
C1067      C1068   1.411   1_565  A
C1067      C1072   1.410       .  A
C1068      C1069   1.405       .  A
C1069      C1070   1.410   1_545  A
C1069     Br1075   1.931       .  S
C1070      C1071   1.412       .  A
C1071      C1072   1.409       .  A
C1071     Br1080   1.929       .  S
C1072     Br1076   1.930       .  S
C1081      C1082   1.412   1_655  A
C1081      C1086   1.415       .  A
C1083     Br1098   1.932       .  S
C1084      C1087   1.493       .  S
C1084      C1085   1.412       .  A
C1085      C1086   1.410       .  A
C1085     Br1093   1.931       .  S
C1086     Br1097   1.931       .  S
C1087      C1088   1.416       .  A
C1088      C1089   1.412       .  A
C1088     Br1099   1.930       .  S
C1089      C1090   1.409       .  A
C1089     Br1095   1.929       .  S
C1091      C1092   1.404       .  A
C1091     Br1100   1.930       .  S
C1092     Br1096   1.931       .  S
C1101      C1106   1.412   1_455  A
C1102      C1103   1.409       .  A
C1102     Br1114   1.928       .  S
C1103     Br1118   1.929       .  S
C1104      C1107   1.489       .  S
C1104      C1105   1.409       .  A
C1105      C1106   1.408       .  A
C1105     Br1113   1.930       .  S
C1106     Br1117   1.930       .  S
C1107      C1108   1.404       .  A
C1108      C1109   1.411       .  A
C1108     Br1119   1.934   1_655  S
C1109      C1110   1.432       .  A
C1109     Br1115   1.941       .  S
C1111      C1112   1.410       .  A
C1111     Br1120   1.935       .  S
C1112     Br1116   1.933       .  S
C1121      C1122   1.419   1_655  A
C1122      C1123   1.413       .  A
C1122     Br1134   1.925       .  S
C1123      C1124   1.409   1_455  A
C1123     Br1138   1.932       .  S
C1124      C1127   1.494       .  S
C1125      C1126   1.412       .  A
C1125     Br1133   1.932       .  S
C1126     Br1137   1.929       .  S
C1127      C1132   1.412       .  A
C1128      C1129   1.409       .  A
C1128     Br1139   1.928       .  S
C1129     Br1135   1.930       .  S
C1130      C1131   1.410       .  A
C1131      C1132   1.411       .  A
C1131     Br1140   1.928       .  S
C1132     Br1136   1.929       .  S
C1141      C1146   1.416   1_455  A
C1142      C1143   1.407       .  A
C1142     Br1154   1.932       .  S
C1143     Br1158   1.932       .  S
C1144      C1147   1.482       .  S
C1144      C1145   1.406   1_455  A
C1145      C1146   1.407       .  A
C1145     Br1153   1.932       .  S
C1146     Br1157   1.930       .  S
C1147      C1148   1.409   1_455  A
C1148      C1149   1.405       .  A
C1148     Br1159   1.930       .  S
C1149      C1150   1.411   1_655  A
C1149     Br1155   1.930       .  S
C1150      C1151   1.411       .  A
C1152     Br1156   1.929       .  S
