geometry optimzed in LAMMPS
_audit_creation_date              2020-11-30 
_audit_creation_method            'lammps2cif' 
_symmetry_space_group_name_H-M    'P1' 
_symmetry_Int_Tables_number       1 
_symmetry_cell_setting            triclinic 
loop_ 
_symmetry_equiv_pos_as_xyz 
  x,y,z 
_cell_length_a                    39.62163602 
_cell_length_b                    40.95502934851025 
_cell_length_c                    75.60725849422582 
_cell_angle_alpha                 90.02597383503687 
_cell_angle_beta                  90.57900542779522 
_cell_angle_gamma                 119.81174484422682 
loop_ 
_atom_site_label 
_atom_site_type_symbol 
_atom_site_fract_x 
_atom_site_fract_y 
_atom_site_fract_z 
_atom_site_charge 
C1          C  0.33811702  0.17244233  0.53891228     0.47400
H2          H  0.33870780  0.17279614  0.52422793    -0.01600
C3          C  0.33771090  0.17260641  0.57337918     0.47500
H4          H  0.33770966  0.17241310  0.58807834    -0.01600
C5          C  0.37886172  0.19247234  0.54755146    -0.15300
C6          C  0.31767823  0.19258156  0.54689518    -0.15100
C7          C  0.31720610  0.13264044  0.54695244    -0.15400
C8          C  0.37853188  0.19274090  0.56562588    -0.15400
C9          C  0.31682176  0.19200663  0.56512064    -0.15000
C10         C  0.31791073  0.13315251  0.56513791    -0.15300
C11         C  0.17492981  0.34584157  0.45801338     0.47400
H12         H  0.17657798  0.34793863  0.44339079    -0.01600
C13         C  0.17380043  0.34155120  0.49240155     0.47500
H14         H  0.17411468  0.34043627  0.50705754    -0.01600
C15         C  0.19588141  0.32595734  0.46528318    -0.15300
C16         C  0.19327789  0.38407335  0.46755955    -0.15100
C17         C  0.13351223  0.32329083  0.46532355    -0.15400
C18         C  0.19543640  0.32363104  0.48332774    -0.15400
C19         C  0.19298039  0.38205606  0.48556911    -0.15000
C20         C  0.13280954  0.32194191  0.48369053    -0.15300
O21         O  0.09679127  0.25472738  0.69832141    -0.78900
O22         O  0.19507638  0.38392696  0.64755775    -0.63600
O23         O  0.16496201  0.31091540  0.68415660    -1.10200
C24         C  0.13604905  0.39590177  0.71475734     1.07900
O25         O  0.22851075  0.42858756  0.66704792    -0.76800
O26         O  0.22651482  0.42034071  0.70210006    -0.64400
Ni27       Ni  0.13036636  0.25915752  0.67925284     1.34900
C28         C  0.22605756  0.39457184  0.71153023     0.86700
O29         O  0.19778042  0.31988044  0.65076170    -0.77400
O30         O  0.16200072  0.26002981  0.65987409    -0.87700
C31         C  0.21983952  0.41789055  0.65107246     0.86300
O32         O  0.09522705  0.26418003  0.66364873    -0.65900
O33         O  0.15798488  0.42033517  0.70350444    -0.85100
C34         C  0.09923082  0.29029004  0.65340573     0.87100
C35         C  0.18763950  0.28500644  0.64984949     1.08700
H36         H  0.13573222  0.36669300  0.67591910     0.40500
O37         O  0.15998690  0.37001080  0.68073949    -1.07800
O38         O  0.19785308  0.36089188  0.71120183    -0.64500
Ni39       Ni  0.14722315  0.33567417  0.69992575     1.26300
O40         O  0.13016491  0.32202072  0.65279002    -0.64700
O41         O  0.12986164  0.36213339  0.71506922    -0.77000
C42         C  0.10822000  0.26386205  0.71420670     0.86500
O43         O  0.13302113  0.29786620  0.71784017    -0.64200
Ni44       Ni  0.19199942  0.42240173  0.68512058     1.27400
Ni45       Ni  0.17926110  0.34598013  0.66531630     1.26100
H46         H  0.18846352  0.31269451  0.68892344     0.41000
C47         C  0.48469894  0.00952548  0.79267092     0.47400
H48         H  0.48633253  0.01031123  0.77799265    -0.01600
C49         C  0.48097249  0.00803574  0.82711421     0.47500
H50         H  0.47946193  0.00740328  0.84178471    -0.01600
C51         C  0.51124034  0.49210346  0.80039633    -0.15300
C52         C  0.50223208  0.04854132  0.80123534    -0.15100
C53         C  0.44735141  0.48672738  0.79938398    -0.15400
C54         C  0.51037563  0.49130619  0.81854263    -0.15400
C55         C  0.50038959  0.04804147  0.81932992    -0.15000
C56         C  0.44607565  0.48586113  0.81753602    -0.15300
C57         C  0.14964176  0.33686003  0.87474675     0.47400
H58         H  0.14953377  0.33759119  0.86006063    -0.01600
C59         C  0.14980785  0.33499525  0.90921424     0.47500
H60         H  0.14987308  0.33401045  0.92390785    -0.01600
C61         C  0.12817413  0.29670501  0.88238366    -0.15300
C62         C  0.19084312  0.35536364  0.88306202    -0.15100
C63         C  0.13007423  0.35735517  0.88347181    -0.15400
C64         C  0.12845033  0.29602177  0.90050427    -0.15400
C65         C  0.19061916  0.35446785  0.90122607    -0.15000
C66         C  0.12992517  0.35595536  0.90167906    -0.15300
C67         C  0.35417868  0.17082620  0.15914363     0.47400
H68         H  0.35421968  0.17138071  0.17383145    -0.01600
C69         C  0.35457501  0.17026959  0.12468461     0.47500
H70         H  0.35519155  0.17013841  0.10999401    -0.01600
C71         C  0.37265963  0.14865434  0.15120065    -0.15300
C72         C  0.31325266  0.15289317  0.15066294    -0.15100
C73         C  0.37611568  0.21026240  0.15094293    -0.15400
C74         C  0.37289470  0.14880514  0.13306377    -0.15400
C75         C  0.31351453  0.15198467  0.13242703    -0.15000
C76         C  0.37660881  0.20982125  0.13284845    -0.15300
C77         C  0.01971145  0.50124848  0.20777993     0.47400
H78         H  0.02062441  0.50236611  0.19313653    -0.01600
C79         C  0.01785724  0.50095227  0.24222120     0.47500
H80         H  0.01761933  0.50153822  0.25689681    -0.01600
C81         C  0.05987591  0.02193038  0.21530306    -0.15300
C82         C  0.99647004  0.01809667  0.21537081    -0.15100
C83         C  0.99852358  0.46101815  0.21575440    -0.15400
C84         C  0.06090532  0.02296737  0.23344434    -0.15400
C85         C  0.99751269  0.01874449  0.23343216    -0.15000
C86         C  0.99956933  0.46135392  0.23408610    -0.15300
O87         O  0.28015271  0.08411463  0.36526313    -0.78900
O88         O  0.38073131  0.21308623  0.31529179    -0.63600
O89         O  0.34913281  0.14097902  0.35209506    -1.10200
C90         C  0.31495453  0.22497043  0.37962464     1.07900
O91         O  0.41350774  0.25673229  0.33530654    -0.76800
O92         O  0.40628158  0.25099144  0.37093096    -0.64400
Ni93       Ni  0.31691579  0.08886574  0.34765574     1.34900
C94         C  0.40558051  0.22495539  0.38029956     0.86700
O95         O  0.38360192  0.14967490  0.31937490    -0.77400
O96         O  0.35183477  0.09036585  0.32977958    -0.87700
C97         C  0.40598658  0.24671759  0.31915798     0.86300
O98         O  0.28352869  0.09145991  0.33022182    -0.65900
O99         O  0.33696806  0.24948578  0.36838634    -0.85100
C100        C  0.28585431  0.11683914  0.31991160     0.87100
C101        C  0.37618264  0.11560550  0.31943205     1.08700
H102        H  0.31942351  0.19569991  0.34225932     0.40500
O103        O  0.34330619  0.19930559  0.34756117    -1.07800
O104        O  0.37903322  0.19078069  0.37890509    -0.64500
Ni105      Ni  0.32951839  0.16550397  0.36678469     1.26300
O106        O  0.31499427  0.15003264  0.32004264    -0.64700
O107        O  0.31071891  0.19200580  0.38084315    -0.77000
C108        C  0.28913967  0.09445224  0.38126079     0.86500
O109        O  0.31396154  0.12839283  0.38482188    -0.64200
Ni110      Ni  0.37452856  0.25167284  0.35186145     1.27400
Ni111      Ni  0.36378845  0.17533946  0.33305984     1.26100
H112        H  0.37282895  0.14383697  0.35735019     0.41000
O113        O  0.03182449  0.09491952  0.00229158    -0.78900
O114        O  0.48989358  0.45806163  0.05130221    -0.63600
O115        O  0.03336705  0.03188006  0.01520979    -1.10200
C116        C  0.41680928  0.45805311  0.98616749     1.07900
O117        O  0.47320095  0.41401895  0.03100122    -0.76800
O118        O  0.47643470  0.42468791  0.99586400    -0.64400
Ni119      Ni  0.05739400  0.08392920  0.02119099     1.34900
C120        C  0.00089137  0.44932921  0.98727135     0.86700
O121        O  0.05835374  0.01674357  0.04724163    -0.77400
O122        O  0.08542717  0.07825239  0.04083142    -0.87700
C123        C  0.47859759  0.42415091  0.04715297     0.86300
O124        O  0.01851345  0.08096573  0.03648943    -0.65900
O125        O  0.41173541  0.43197518  0.99691348    -0.85100
C126        C  0.49574270  0.05332767  0.04750033     0.87100
C127        C  0.08411907  0.05107720  0.04964247     1.08700
H128        H  0.45080354  0.48249493  0.02443694     0.40500
O129        O  0.46986452  0.47740213  0.01919879    -1.07800
O130        O  0.01282509  0.48435115  0.98876512    -0.64500
Ni131      Ni  0.49034380  0.01125139  0.00077516     1.26300
O132        O  0.49493078  0.02195207  0.04870238    -0.64700
O133        O  0.44787663  0.49010639  0.98560991    -0.77000
C134        C  0.02579501  0.08341684  0.98636394     0.86500
O135        O  0.01207923  0.04882744  0.98279784    -0.64200
Ni136      Ni  0.44358934  0.42500425  0.01401808     1.27400
Ni137      Ni  0.01546424  0.49709358  0.03434776     1.26100
H138        H  0.05293469  0.02807922  0.00955542     0.41000
C139        C  0.13331299  0.08325569  0.26912878     0.14600
C140        C  0.16157521  0.07226084  0.26788547     0.01600
C141        C  0.15765994  0.04637661  0.25466668     0.16600
C142        C  0.12546128  0.03098229  0.24317515     0.26000
C143        C  0.09683923  0.04155529  0.24457939    -0.40400
C144        C  0.10111684  0.06785581  0.25764197     0.33000
C145        C  0.19291113  0.08462285  0.28142561     0.01600
F146        F  0.18454274  0.03518151  0.25325820    -0.12700
F147        F  0.07366450  0.07807476  0.25956820    -0.13200
C148        C  0.19431574  0.05771102  0.29235458     0.16600
C149        C  0.22398505  0.06828781  0.30492372     0.26000
C150        C  0.25326388  0.10639804  0.30697863    -0.40300
C151        C  0.25120597  0.13357962  0.29621429     0.32900
C152        C  0.22117711  0.12272491  0.28360348     0.14600
F153        F  0.16655357  0.02087164  0.29091990    -0.12700
F154        F  0.27819561  0.17062213  0.29778067    -0.13200
F155        F  0.22407377  0.04071168  0.31485396    -0.15500
F156        F  0.22012094  0.14931334  0.27326879    -0.14000
F157        F  0.13588455  0.10746896  0.28204094    -0.14000
F158        F  0.12114319  0.00413460  0.23138747    -0.15500
C159        C  0.42962578  0.29516638  0.27444003     0.14600
C160        C  0.45641385  0.33229554  0.27947144     0.01600
C161        C  0.47007712  0.34004893  0.29699146     0.16600
C162        C  0.45539758  0.31172337  0.30964541     0.26000
C163        C  0.42631070  0.27484593  0.30505597    -0.40400
C164        C  0.41473711  0.26652702  0.28711738     0.33000
C165        C  0.46708578  0.36394336  0.26722892     0.01600
F166        F  0.99660547  0.37528758  0.30230181    -0.12700
F167        F  0.38769791  0.23120201  0.28193316    -0.13200
C168        C  0.45521280  0.39017741  0.27104320     0.16600
C169        C  0.46731079  0.42200259  0.26060331     0.26000
C170        C  0.49011967  0.42753348  0.24555777    -0.40300
C171        C  0.99918400  0.40083699  0.24155899     0.32900
C172        C  0.49094598  0.36971952  0.25262203     0.14600
F173        F  0.43190484  0.38499917  0.28505843    -0.12700
F174        F  0.02206160  0.40551112  0.22745653    -0.13200
F175        F  0.45643878  0.44723240  0.26534188    -0.15500
F176        F  0.50405359  0.34543997  0.24917126    -0.14000
F177        F  0.41616971  0.28710090  0.25750356    -0.14000
F178        F  0.46877029  0.32101098  0.32654612    -0.15500
C179        C  0.48183105  0.08970504  0.25916683     0.14600
C180        C  0.44680561  0.06579179  0.26781405     0.01600
C181        C  0.42734091  0.02695782  0.26411780     0.16600
C182        C  0.44405303  0.01190159  0.25304927     0.26000
C183        C  0.47986476  0.03552754  0.24518741    -0.40400
C184        C  0.49802433  0.07458988  0.24771307     0.33000
C185        C  0.43114450  0.08056787  0.28129891     0.01600
F186        F  0.39215764  0.00360543  0.27131729    -0.12700
F187        F  0.03023854  0.09708840  0.23935452    -0.13200
C188        C  0.42379949  0.10998151  0.27736404     0.16600
C189        C  0.40707849  0.12225514  0.29000450     0.26000
C190        C  0.39648086  0.10457635  0.30660305    -0.40300
C191        C  0.40457402  0.07563354  0.31061556     0.32900
C192        C  0.42237484  0.06422952  0.29818087     0.14600
F193        F  0.43144846  0.12589777  0.26108453    -0.12700
F194        F  0.39571691  0.05863267  0.32665338    -0.13200
F195        F  0.39978147  0.15037354  0.28570982    -0.15500
F196        F  0.43116159  0.03715999  0.30263761    -0.14000
F197        F  0.50102056  0.12737174  0.26228969    -0.14000
F198        F  0.42247299  0.47502949  0.24829408    -0.15500
C199        C  0.44896404  0.28557021  0.10281995     0.14600
C200        C  0.43048060  0.30665123  0.09927689     0.01600
C201        C  0.39470155  0.29633968  0.10734257     0.16600
C202        C  0.37750716  0.26521009  0.11854844     0.26000
C203        C  0.39574529  0.24393035  0.12181895    -0.40400
C204        C  0.43160328  0.25432741  0.11396478     0.33000
C205        C  0.44729253  0.33811027  0.08648654     0.01600
F206        F  0.37568663  0.31555781  0.10382130    -0.12700
F207        F  0.44972567  0.23413580  0.11706848    -0.13200
C208        C  0.45396731  0.33163027  0.06895947     0.16600
C209        C  0.46621829  0.36021698  0.05640693     0.26000
C210        C  0.47146788  0.39584179  0.06105089    -0.40300
C211        C  0.46702278  0.40291032  0.07889139     0.32900
C212        C  0.45497123  0.37425716  0.09145475     0.14600
F213        F  0.44692261  0.29703003  0.06376234    -0.12700
F214        F  0.47292062  0.43708949  0.08413286    -0.13200
F215        F  0.96592628  0.35118492  0.03936044    -0.15500
F216        F  0.45021021  0.38164256  0.10847116    -0.14000
F217        F  0.48381569  0.29527720  0.09546780    -0.14000
F218        F  0.34245161  0.25509463  0.12576616    -0.15500
C219        C  0.24201026  0.13560977  0.09522997     0.14600
C220        C  0.21136280  0.09944246  0.09901130     0.01600
C221        C  0.21489400  0.07961775  0.11337520     0.16600
C222        C  0.24845332  0.09620481  0.12405428     0.26000
C223        C  0.27835030  0.13331729  0.12081889    -0.40400
C224        C  0.27509225  0.15251130  0.10608422     0.33000
C225        C  0.17564032  0.08334866  0.08800229     0.01600
F226        F  0.18563260  0.04453470  0.11720480    -0.12700
F227        F  0.30351148  0.18805152  0.10239683    -0.13200
C228        C  0.16620459  0.05303418  0.07645772     0.16600
C229        C  0.13536715  0.04148812  0.06430996     0.26000
C230        C  0.11399859  0.06042491  0.06347985    -0.40300
C231        C  0.12241693  0.08964462  0.07558464     0.32900
C232        C  0.15286209  0.10083984  0.08782623     0.14600
F233        F  0.18810415  0.03599191  0.07632978    -0.12700
F234        F  0.10122233  0.10744423  0.07549050    -0.13200
F235        F  0.12785751  0.01336982  0.05266533    -0.15500
F236        F  0.16079167  0.12937920  0.09929397    -0.14000
F237        F  0.23974687  0.15459175  0.08096145    -0.14000
F238        F  0.25194561  0.07580472  0.13736058    -0.15500
C239        C  0.44612585  0.12806225  0.11176066     0.14600
C240        C  0.42255690  0.10007131  0.09945696     0.01600
C241        C  0.38249011  0.08712225  0.09866206     0.16600
C242        C  0.36617536  0.10253762  0.10986616     0.26000
C243        C  0.38980225  0.13090841  0.12203517    -0.40400
C244        C  0.42980935  0.14340067  0.12302160     0.33000
C245        C  0.44026126  0.08707560  0.08624081     0.01600
F246        F  0.35947139  0.06021488  0.08672462    -0.12700
F247        F  0.45323709  0.17152535  0.13435690    -0.13200
C248        C  0.44752067  0.05759908  0.08997163     0.16600
C249        C  0.46460284  0.04574158  0.07723453     0.26000
C250        C  0.47469729  0.06339542  0.06056791    -0.40300
C251        C  0.46713444  0.09301731  0.05700815     0.32900
C252        C  0.45004187  0.10460992  0.06973577     0.14600
F253        F  0.43847410  0.04067519  0.10601844    -0.12700
F254        F  0.98751391  0.12085414  0.04354372    -0.13200
F255        F  0.47255413  0.01803868  0.08149504    -0.15500
F256        F  0.44343990  0.13342784  0.06605087    -0.14000
F257        F  0.48509014  0.14145182  0.11236927    -0.14000
F258        F  0.32735044  0.08978296  0.10887258    -0.15500
C259        C  0.39133016  0.07142107  0.16769941     0.14600
C260        C  0.42238304  0.09121373  0.17973492     0.01600
C261        C  0.43525208  0.12954798  0.18304256     0.16600
C262        C  0.41819489  0.14784494  0.17416572     0.26000
C263        C  0.38772694  0.12819282  0.16198296    -0.40400
C264        C  0.37383025  0.08958677  0.15911655     0.33000
C265        C  0.44145498  0.07199343  0.18865900     0.01600
F266        F  0.46444941  0.14939800  0.19486870    -0.12700
F267        F  0.34352750  0.06950433  0.14782168    -0.13200
C268        C  0.48213768  0.08743657  0.18810234     0.16600
C269        C  0.50002866  0.06956805  0.19667010     0.26000
C270        C  0.47764849  0.03575935  0.20575854    -0.40300
C271        C  0.43702552  0.01976634  0.20597927     0.32900
C272        C  0.41910820  0.03788338  0.19769902     0.14600
F273        F  0.50461001  0.11973419  0.17914366    -0.12700
F274        F  0.41467653  0.98659036  0.21429138    -0.13200
F275        F  0.03768506  0.08454453  0.19505478    -0.15500
F276        F  0.37995777  0.02254652  0.19892659    -0.14000
F277        F  0.37873838  0.03474878  0.16377486    -0.14000
F278        F  0.43254525  0.18520055  0.17692372    -0.15500
C279        C  0.23546874  0.09590663  0.18407467     0.14600
C280        C  0.20606803  0.10403153  0.17932856     0.01600
C281        C  0.21338062  0.13106594  0.16628404     0.16600
C282        C  0.24886340  0.14823440  0.15742237     0.26000
C283        C  0.27748659  0.13842355  0.16143101    -0.40400
C284        C  0.27103865  0.11320679  0.17530310     0.33000
C285        C  0.16742850  0.08339153  0.18763031     0.01600
F286        F  0.18562390  0.13985060  0.16171972    -0.12700
F287        F  0.29840592  0.10387416  0.17980861    -0.13200
C288        C  0.15354367  0.10249965  0.19804045     0.16600
C289        C  0.11762934  0.08256831  0.20639665     0.26000
C290        C  0.09525488  0.04322306  0.20458070    -0.40300
C291        C  0.10891713  0.02420596  0.19400031     0.32900
C292        C  0.14461715  0.04417931  0.18546499     0.14600
F293        F  0.17543650  0.14024062  0.20063214    -0.12700
F294        F  0.08913541  0.98612498  0.19294712    -0.13200
F295        F  0.10514151  0.10151287  0.21671173    -0.15500
F296        F  0.15730118  0.02519990  0.17529244    -0.14000
F297        F  0.22944230  0.07076067  0.19706853    -0.14000
F298        F  0.25504567  0.17409771  0.14478131    -0.15500
C299        C  0.47138078  0.38420757  0.18006581     0.14600
C300        C  0.43883527  0.35338209  0.18763103     0.01600
C301        C  0.42325763  0.35951144  0.20309663     0.16600
C302        C  0.44116519  0.39504299  0.21122319     0.26000
C303        C  0.47694550  0.42448955  0.20501788    -0.40400
C304        C  0.49045312  0.41913834  0.18871854     0.33000
C305        C  0.42191190  0.31523141  0.17934943     0.01600
F306        F  0.39137953  0.33094703  0.21072630    -0.12700
F307        F  0.02178504  0.44920811  0.18097587    -0.13200
C308        C  0.44642697  0.30090136  0.17457316     0.16600
C309        C  0.43156308  0.26669414  0.16541332     0.26000
C310        C  0.39170304  0.24533874  0.16153980    -0.40300
C311        C  0.36680336  0.25853987  0.16693572     0.32900
C312        C  0.38175926  0.29338752  0.17557310     0.14600
F313        F  0.48492885  0.32011339  0.17877821    -0.12700
F314        F  0.32814196  0.23832686  0.16317014    -0.13200
F315        F  0.45619264  0.25467252  0.16009339    -0.15500
F316        F  0.35716652  0.30635661  0.17955307    -0.14000
F317        F  0.48490450  0.38048141  0.16419587    -0.14000
F318        F  0.42312889  0.40062877  0.22510649    -0.15500
C319        C  0.26580240  0.36773007  0.93585026     0.14600
C320        C  0.28949756  0.40718497  0.93633925     0.01600
C321        C  0.28135387  0.42911516  0.92462506     0.16600
C322        C  0.24982852  0.41186370  0.91278172     0.26000
C323        C  0.22579514  0.37256158  0.91264945    -0.40400
C324        C  0.23391186  0.35063805  0.92427222     0.33000
C325        C  0.32207792  0.42493125  0.94933974     0.01600
F326        F  0.30301309  0.46723950  0.92510239    -0.12700
F327        F  0.21110761  0.31259477  0.92427524    -0.13200
C328        C  0.36053238  0.44878472  0.94382996     0.16600
C329        C  0.39153768  0.46148746  0.95599424     0.26000
C330        C  0.38449818  0.44986070  0.97374012    -0.40300
C331        C  0.34587662  0.42771500  0.97936081     0.32900
C332        C  0.31500119  0.41592921  0.96734888     0.14600
F333        F  0.36826195  0.45816365  0.92653304    -0.12700
F334        F  0.33799103  0.41710688  0.99652877    -0.13200
F335        F  0.42847773  0.48314536  0.95019301    -0.15500
F336        F  0.27803646  0.39508978  0.97326938    -0.14000
F337        F  0.27370561  0.34570117  0.94656652    -0.14000
F338        F  0.24176137  0.43358000  0.90194178    -0.15500
C339        C  0.05930364  0.22358370  0.93253541     0.14600
C340        C  0.07129267  0.19656203  0.93215403     0.01600
C341        C  0.10106204  0.20141987  0.92064903     0.16600
C342        C  0.11955845  0.23363331  0.91016300     0.26000
C343        C  0.10844789  0.26126728  0.91108547    -0.40400
C344        C  0.07798599  0.25584651  0.92220273     0.33000
C345        C  0.05686005  0.16667167  0.94562169     0.01600
F346        F  0.11368964  0.17608686  0.92034169    -0.12700
F347        F  0.06632009  0.28184298  0.92305757    -0.13200
C348        C  0.03789370  0.12833465  0.94097197     0.16600
C349        C  0.02662207  0.10080274  0.95413489     0.26000
C350        C  0.03433363  0.11141524  0.97214409    -0.40300
C351        C  0.05224413  0.15002077  0.97659195     0.32900
C352        C  0.06359680  0.17713303  0.96349843     0.14600
F353        F  0.03031795  0.11764831  0.92372246    -0.12700
F354        F  0.05990202  0.16209969  0.99366087    -0.13200
F355        F  0.50487015  0.06640480  0.95034347    -0.15500
F356        F  0.08258640  0.21402914  0.96831809    -0.14000
F357        F  0.03017360  0.21914066  0.94335284    -0.14000
F358        F  0.14944753  0.23868103  0.89973542    -0.15500
C359        C  0.02870494  0.38577780  0.96180913     0.14600
C360        C  0.05571551  0.41090700  0.94970211     0.01600
C361        C  0.06532758  0.44883080  0.95014386     0.16600
C362        C  0.04793588  0.46146345  0.96238131     0.26000
C363        C  0.02052872  0.43632775  0.97456884    -0.40400
C364        C  0.01153305  0.39829181  0.97420186     0.33000
C365        C  0.07476006  0.39773256  0.93698806     0.01600
F366        F  0.09125655  0.47360519  0.93849719    -0.12700
F367        F  0.98647530  0.37304865  0.98597020    -0.13200
C368        C  0.05324727  0.37275541  0.92318541     0.16600
C369        C  0.07118705  0.35959639  0.91151624     0.26000
C370        C  0.11096228  0.37115643  0.91349012    -0.40300
C371        C  0.13236604  0.39609281  0.92734247     0.32900
C372        C  0.11447889  0.40944380  0.93890660     0.14600
F373        F  0.01482943  0.36109563  0.92104653    -0.12700
F374        F  0.17078125  0.40788415  0.92956393    -0.13200
F375        F  0.04939634  0.33458505  0.89865851    -0.15500
F376        F  0.13573033  0.43324505  0.95225445    -0.14000
F377        F  0.01946516  0.34909643  0.96183890    -0.14000
F378        F  0.05779738  0.49830159  0.96209964    -0.15500
C379        C  0.02196523  0.42106758  0.84691840     0.14600
C380        C  0.06235957  0.43507422  0.84638731     0.01600
C381        C  0.08597444  0.46886334  0.83740622     0.16600
C382        C  0.06949978  0.48807983  0.82896742     0.26000
C383        C  0.02906831  0.47357067  0.82911078    -0.40400
C384        C  0.50617887  0.44243312  0.83985004     0.33000
C385        C  0.08015704  0.41511894  0.85551059     0.01600
F386        F  0.12499462  0.48287197  0.83652598    -0.12700
F387        F  0.46747964  0.42941364  0.84150617    -0.13200
C388        C  0.06941213  0.37784367  0.85092075     0.16600
C389        C  0.08632767  0.35926061  0.85969942     0.26000
C390        C  0.11426445  0.37772202  0.87314814    -0.40300
C391        C  0.12594573  0.41539324  0.87726202     0.32900
C392        C  0.10861869  0.43368344  0.86873870     0.14600
F393        F  0.04273037  0.35956278  0.83786759    -0.12700
F394        F  0.15434049  0.43460338  0.88952926    -0.13200
F395        F  0.07455810  0.32290902  0.85544725    -0.15500
F396        F  0.11912830  0.46941669  0.87365060    -0.14000
F397        F  0.50016137  0.39257910  0.85818723    -0.14000
F398        F  0.08740867  0.02054995  0.81852557    -0.15500
C399        C  0.06340709  0.12602756  0.84999102     0.14600
C400        C  0.05047986  0.15196022  0.84680005     0.01600
C401        C  0.01881732  0.14170546  0.83515054     0.16600
C402        C  0.50033217  0.10715865  0.82796824     0.26000
C403        C  0.01541130  0.08179929  0.82899575    -0.40400
C404        C  0.04601458  0.09123523  0.84112778     0.33000
C405        C  0.07024869  0.18989529  0.85529185     0.01600
F406        F  0.50414842  0.16620528  0.83301698    -0.12700
F407        F  0.06006818  0.06740122  0.84386019    -0.13200
C408        C  0.11047304  0.21430067  0.85318768     0.16600
C409        C  0.12905357  0.24999726  0.86122209     0.26000
C410        C  0.10774840  0.26188011  0.87145772    -0.40300
C411        C  0.06738256  0.23807853  0.87307369     0.32900
C412        C  0.04885503  0.20232382  0.86520520     0.14600
F413        F  0.13176775  0.20354736  0.84333006    -0.12700
F414        F  0.04604452  0.24921597  0.88265959    -0.13200
F415        F  0.16814316  0.27225969  0.85970366    -0.15500
F416        F  0.01015563  0.17937166  0.86772355    -0.14000
F417        F  0.09297959  0.13446129  0.86163417    -0.14000
F418        F  0.46793432  0.09651582  0.81788474    -0.15500
C419        C  0.27022241  0.41931785  0.85129339     0.14600
C420        C  0.29806152  0.40776078  0.85364405     0.01600
C421        C  0.28950713  0.37767700  0.86515498     0.16600
C422        C  0.25434318  0.36008354  0.87435427     0.26000
C423        C  0.22709789  0.37241380  0.87239848    -0.40400
C424        C  0.23515200  0.40187099  0.86062341     0.33000
C425        C  0.33635988  0.42762544  0.84453909     0.01600
F426        F  0.31573133  0.36596573  0.86788700    -0.12700
F427        F  0.20962745  0.41465104  0.85862603    -0.13200
C428        C  0.36081589  0.46677407  0.84665017     0.16600
C429        C  0.39710894  0.48541781  0.83840091     0.26000
C430        C  0.40937824  0.46545609  0.82764269    -0.40300
C431        C  0.38538023  0.42633018  0.82569212     0.32900
C432        C  0.34919450  0.40757506  0.83403037     0.14600
F433        F  0.34967766  0.48698619  0.85683457    -0.12700
F434        F  0.39710959  0.40628987  0.81571499    -0.13200
F435        F  0.41644986  0.02415922  0.84179231    -0.15500
F436        F  0.32629296  0.36991907  0.83149824    -0.14000
F437        F  0.27696204  0.44749746  0.83990862    -0.14000
F438        F  0.24687024  0.33086817  0.88517819    -0.15500
C439        C  0.35372521  0.46680022  0.77626836     0.14600
C440        C  0.35080001  0.44156530  0.76296111     0.01600
C441        C  0.37899275  0.43049183  0.76195092     0.16600
C442        C  0.40996545  0.44462555  0.77407413     0.26000
C443        C  0.41287575  0.46969749  0.78747668    -0.40400
C444        C  0.38457654  0.48078955  0.78847183     0.33000
C445        C  0.31970333  0.42861671  0.74943753     0.01600
F446        F  0.37715027  0.40698739  0.74883608    -0.12700
F447        F  0.38793882  0.50666136  0.80063498    -0.13200
C448        C  0.32213545  0.45308891  0.73597230     0.16600
C449        C  0.29261747  0.44147307  0.72322383     0.26000
C450        C  0.25950100  0.40508356  0.72387054    -0.40300
C451        C  0.25794209  0.38017077  0.73717807     0.32900
C452        C  0.28789468  0.39192549  0.74981658     0.14600
F453        F  0.35327575  0.48840440  0.73519013    -0.12700
F454        F  0.22712004  0.34475722  0.73830457    -0.13200
F455        F  0.29659864  0.46619031  0.71033529    -0.15500
F456        F  0.28547005  0.36779530  0.76270249    -0.14000
F457        F  0.32717299  0.47850494  0.77715331    -0.14000
F458        F  0.43043638  0.93207405  0.77413260    -0.15500
C459        C  0.05275180  0.16784297  0.73567931     0.14600
C460        C  0.06085685  0.17636462  0.75373778     0.01600
C461        C  0.08455814  0.21421898  0.75894606     0.16600
C462        C  0.09985718  0.24296541  0.74625544     0.26000
C463        C  0.09154723  0.23433133  0.72810376    -0.40400
C464        C  0.06776409  0.19624845  0.72306285     0.33000
C465        C  0.04526275  0.14521366  0.76680163     0.01600
F466        F  0.09264754  0.22339908  0.77633203    -0.12700
F467        F  0.05964673  0.18592707  0.70578471    -0.13200
C468        C  0.07049865  0.13994250  0.77817154     0.16600
C469        C  0.05604300  0.10839873  0.78919320     0.26000
C470        C  0.01626410  0.08142729  0.78884643    -0.40300
C471        C  0.49200174  0.09035216  0.78071442     0.32900
C472        C  0.00527163  0.11852855  0.76684424     0.14600
F473        F  0.10938833  0.16433375  0.77796499    -0.12700
F474        F  0.45311685  0.06628083  0.78123460    -0.13200
F475        F  0.08108865  0.10337053  0.79967229    -0.15500
F476        F  0.48037290  0.12940876  0.76140714    -0.14000
F477        F  0.03115083  0.13156993  0.73010566    -0.14000
F478        F  0.12286746  0.27907706  0.75176971    -0.15500
C479        C  0.09380720  0.45057983  0.73682052     0.14600
C480        C  0.08416940  0.43410496  0.75364416     0.01600
C481        C  0.09090759  0.40422351  0.75758637     0.16600
C482        C  0.10723440  0.39126213  0.74492608     0.26000
C483        C  0.11716934  0.40804145  0.72809312    -0.40400
C484        C  0.11022344  0.43788182  0.72424520     0.33000
C485        C  0.06708744  0.44841742  0.76686339     0.01600
F486        F  0.08272232  0.38830354  0.77386514    -0.12700
F487        F  0.11880673  0.45463618  0.70815054    -0.13200
C488        C  0.03085974  0.42415194  0.77452788     0.16600
C489        C  0.01359851  0.43845421  0.78591711     0.26000
C490        C  0.03175640  0.47724372  0.78938428    -0.40300
C491        C  0.06788084  0.50146597  0.78184538     0.32900
C492        C  0.08584269  0.48710025  0.77099863     0.14600
F493        F  0.01144447  0.38691474  0.77039910    -0.12700
F494        F  0.08575137  0.53908064  0.78501978    -0.13200
F495        F  0.48290513  0.41332941  0.79803670    -0.15500
F496        F  0.12150200  0.51103478  0.76439523    -0.14000
F497        F  0.08676202  0.47880700  0.73241614    -0.14000
F498        F  0.11459896  0.36326977  0.74938507    -0.15500
C499        C  0.26161913  0.27167688  0.39872401     0.14600
C500        C  0.25870064  0.26131774  0.41661873     0.01600
C501        C  0.27203481  0.23677437  0.42200294     0.16600
C502        C  0.28925925  0.22396122  0.40982067     0.26000
C503        C  0.29378319  0.23579134  0.39210720    -0.40400
C504        C  0.27934956  0.25937303  0.38662225     0.33000
C505        C  0.24326537  0.27752102  0.42964867     0.01600
F506        F  0.26989517  0.22644882  0.43919712    -0.12700
F507        F  0.28214567  0.27032470  0.36949258    -0.13200
C508        C  0.21182457  0.25416945  0.44051123     0.16600
C509        C  0.19654442  0.26987295  0.45220985     0.26000
C510        C  0.21278207  0.30913179  0.45340163    -0.40300
C511        C  0.24386360  0.33234608  0.44244275     0.32900
C512        C  0.25933499  0.31677835  0.43085278     0.14600
F513        F  0.19491770  0.21614652  0.43928574    -0.12700
F514        F  0.25915523  0.37017898  0.44285890    -0.13200
F515        F  0.16460441  0.24665396  0.46165760    -0.15500
F516        F  0.29019938  0.34013601  0.42080239    -0.14000
F517        F  0.24727563  0.29383149  0.39295827    -0.14000
F518        F  0.30330388  0.20153191  0.41554926    -0.15500
C519        C  0.98144751  0.22256713  0.41030400     0.14600
C520        C  0.99703044  0.25767996  0.41892841     0.01600
C521        C  0.47955261  0.27901595  0.41632012     0.16600
C522        C  0.44911055  0.26792359  0.40407888     0.26000
C523        C  0.43669738  0.23528734  0.39374784    -0.40400
C524        C  0.45424970  0.21304050  0.39644885     0.33000
C525        C  0.03247286  0.27240338  0.43037743     0.01600
F526        F  0.49095527  0.31077501  0.42605104    -0.12700
F527        F  0.44290896  0.18139235  0.38666097    -0.12000
C528        C  0.06454186  0.30780253  0.42670971     0.16600
C529        C  0.09702316  0.32384040  0.43790047     0.26000
C530        C  0.09892628  0.30466429  0.45302333    -0.40300
C531        C  0.06795513  0.26780989  0.45595962     0.32900
C532        C  0.03468923  0.25218681  0.44497036     0.14600
F533        F  0.06448134  0.32713960  0.41212903    -0.12700
F534        F  0.06983246  0.24674676  0.46937889    -0.13200
F535        F  0.12622136  0.35864618  0.43386337    -0.15500
F536        F  0.50784849  0.21756089  0.44745236    -0.14000
F537        F  0.99715842  0.20013189  0.41310984    -0.14000
F538        F  0.43142848  0.28893777  0.40244640    -0.15500
C539        C  0.19645853  0.46386839  0.44160322     0.14600
C540        C  0.23582030  0.48392593  0.43708473     0.01600
C541        C  0.26184106  0.47310174  0.44388405     0.16600
C542        C  0.24818898  0.44133770  0.45454231     0.26000
C543        C  0.20833521  0.41968527  0.45796053    -0.40400
C544        C  0.18275714  0.43186168  0.45206362     0.33000
C545        C  0.24847086  0.51206658  0.42308987     0.01600
F546        F  0.29999388  0.49226241  0.43946436    -0.12700
F547        F  0.14449867  0.41251872  0.45623183    -0.13200
C548        C  0.26771527  0.04764754  0.42627216     0.16600
C549        C  0.28203622  0.07566171  0.41335019     0.26000
C550        C  0.27043015  0.06637980  0.39549131    -0.40300
C551        C  0.24259284  0.02883060  0.39111697     0.32900
C552        C  0.22831912  0.00112813  0.40406586     0.14600
F553        F  0.28016392  0.05681542  0.44329483    -0.12700
F554        F  0.23000102  0.01833682  0.37419002    -0.13200
F555        F  0.30816370  0.11146562  0.41828340    -0.15500
F556        F  0.23366965  0.46338421  0.40181792    -0.14000
F557        F  0.17111431  0.47426768  0.43514909    -0.14000
F558        F  0.27358947  0.43121439  0.46117998    -0.15500
C559        C  0.22000507  0.22434688  0.62522740     0.14600
C560        C  0.24089134  0.24772350  0.61117823     0.01600
C561        C  0.24465099  0.28351013  0.60978596     0.16600
C562        C  0.22746715  0.29580959  0.62228673     0.26000
C563        C  0.20631491  0.27242879  0.63651072    -0.40400
C564        C  0.20297354  0.23649115  0.63780250     0.33000
C565        C  0.26060468  0.23534630  0.59861741     0.01600
F566        F  0.26514711  0.30658570  0.59632419    -0.12700
F567        F  0.18397959  0.21319466  0.65145104    -0.13200
C568        C  0.24018323  0.21179008  0.58425216     0.16600
C569        C  0.25838732  0.19785285  0.57321230     0.26000
C570        C  0.29745836  0.20770415  0.57630461    -0.40300
C571        C  0.31779414  0.23165865  0.59062787     0.32900
C572        C  0.29953028  0.24539388  0.60165200     0.14600
F573        F  0.20246304  0.20185278  0.58112743    -0.12700
F574        F  0.35549266  0.24200249  0.59394669    -0.13200
F575        F  0.23742469  0.17366536  0.55993854    -0.15500
F576        F  0.31962194  0.26802771  0.61553798    -0.14000
F577        F  0.21677908  0.18990238  0.62695322    -0.14000
F578        F  0.23138653  0.33047731  0.62032738    -0.15500
C579        C  0.46383470  0.26381283  0.59335304     0.14600
C580        C  0.47570009  0.24049201  0.60171309     0.01600
C581        C  0.45694475  0.20200735  0.59732361     0.16600
C582        C  0.42613788  0.18686714  0.58508877     0.26000
C583        C  0.41369251  0.20994434  0.57706565    -0.40400
C584        C  0.43292870  0.24859879  0.58111035     0.33000
C585        C  0.50692042  0.25577391  0.61536115     0.01600
F586        F  0.46837379  0.17907949  0.60501310    -0.12700
F587        F  0.42090656  0.27132227  0.57372841    -0.13200
C588        C  0.49821944  0.24414380  0.63300521     0.16600
C589        C  0.02800817  0.26179045  0.64695104     0.26000
C590        C  0.06670119  0.28267952  0.64123002    -0.40300
C591        C  0.07393115  0.29355137  0.62339496     0.32900
C592        C  0.04301649  0.28189863  0.61130229     0.14600
F593        F  0.46074869  0.22142161  0.63789303    -0.12700
F594        F  0.11096359  0.31325073  0.61742682    -0.13200
F595        F  0.02014177  0.25215335  0.66422228    -0.15500
F596        F  0.05079139  0.29087423  0.59396914    -0.14000
F597        F  0.48121866  0.30095993  0.59755914    -0.14000
F598        F  0.40801094  0.14953002  0.58122379    -0.15500
C599        C  0.30030692  0.04194521  0.58592582     0.14600
C600        C  0.27288736  0.03679336  0.59882701     0.01600
C601        C  0.25928022  0.06249577  0.60010826     0.16600
C602        C  0.27393867  0.09373204  0.58906531     0.26000
C603        C  0.30190736  0.09935093  0.57639262    -0.40400
C604        C  0.31484461  0.07314664  0.57477248     0.33000
C605        C  0.26107070  0.00682214  0.61208952     0.01600
F606        F  0.23205450  0.05745705  0.61222366    -0.12700
F607        F  0.34253920  0.07853129  0.56286110    -0.13200
C608        C  0.27146185  0.01677409  0.62985341     0.16600
C609        C  0.27157350  0.48125071  0.64084513     0.26000
C610        C  0.23906082  0.44580103  0.63677727    -0.40300
C611        C  0.22324648  0.43918323  0.61946296     0.32900
C612        C  0.23776719  0.46831697  0.60704332     0.14600
F613        F  0.29365864  0.05350658  0.63464352    -0.12700
F614        F  0.19249830  0.40530884  0.61479860    -0.13200
F615        F  0.28902934  0.48854799  0.65703950    -0.15500
F616        F  0.22074298  0.46219220  0.59078263    -0.14000
F617        F  0.31417249  0.01767082  0.58467937    -0.14000
F618        F  0.26046204  0.11828624  0.59056586    -0.15500
C619        C  0.29797677  0.26902500  0.53093619     0.14600
C620        C  0.27134989  0.25077588  0.51698965     0.01600
C621        C  0.26260862  0.21425320  0.51193983     0.16600
C622        C  0.27834567  0.19551839  0.52141161     0.26000
C623        C  0.30361185  0.21331693  0.53582147    -0.40400
C624        C  0.31475925  0.25084468  0.53991845     0.33000
C625        C  0.25185848  0.26945343  0.50824318     0.01600
F626        F  0.23857294  0.19660243  0.49793971    -0.12700
F627        F  0.34176095  0.26989901  0.55274971    -0.13200
C628        C  0.27380304  0.30637492  0.50178099     0.16600
C629        C  0.25520471  0.32447578  0.49428107     0.26000
C630        C  0.21451930  0.30592163  0.49300469    -0.40300
C631        C  0.19255724  0.26893945  0.49912668     0.32900
C632        C  0.21101151  0.25089574  0.50681286     0.14600
F633        F  0.31328331  0.32458087  0.50232147    -0.12700
F634        F  0.15337902  0.24955700  0.49683657    -0.13200
F635        F  0.27691410  0.35979669  0.48782404    -0.15500
F636        F  0.18887940  0.21533403  0.51293808    -0.14000
F637        F  0.30670489  0.30400994  0.53634543    -0.14000
F638        F  0.26780159  0.15956901  0.51689972    -0.15500
C639        C  0.26074094  0.46782610  0.51308970     0.14600
C640        C  0.24055519  0.48807368  0.51302884     0.01600
C641        C  0.20296073  0.47117385  0.50548803     0.16600
C642        C  0.18625741  0.43517370  0.49793953     0.26000
C643        C  0.20737686  0.41602687  0.49703907    -0.40400
C644        C  0.24444653  0.43228689  0.50496939     0.33000
C645        C  0.26011726  0.02571639  0.51938694     0.01600
F646        F  0.18293913  0.98862521  0.50461639    -0.12700
F647        F  0.26534448  0.41428210  0.50438508    -0.13200
C648        C  0.29727154  0.05423805  0.51416354     0.16600
C649        C  0.31533197  0.08953931  0.52260698     0.26000
C650        C  0.29640987  0.09723386  0.53624295    -0.40300
C651        C  0.25809934  0.06973916  0.54045494     0.32900
C652        C  0.24064265  0.03410804  0.53252937     0.14600
F653        F  0.31618453  0.04792318  0.50088944    -0.12700
F654        F  0.23752389  0.07723058  0.55243234    -0.13200
F655        F  0.35177646  0.11569606  0.51779967    -0.15500
F656        F  0.20513003  0.00737492  0.53820185    -0.14000
F657        F  0.29630994  0.48254149  0.52098399    -0.14000
F658        F  0.14963745  0.41925946  0.49113069    -0.15500
C659        C  0.46868652  0.20951614  0.52308844     0.14600
C660        C  0.48642690  0.24839844  0.51965068     0.01600
C661        C  0.46793765  0.26831462  0.52525593     0.16600
C662        C  0.43188237  0.24955666  0.53349656     0.26000
C663        C  0.41493359  0.21115639  0.53730044    -0.40400
C664        C  0.43369793  0.19131338  0.53230716     0.33000
C665        C  0.02508579  0.26858489  0.51217625     0.01600
F666        F  0.98475574  0.30575240  0.52391046    -0.12700
F667        F  0.41849763  0.15454153  0.53667127    -0.13200
C668        C  0.02999753  0.29206646  0.49771479     0.16600
C669        C  0.06597209  0.31192565  0.48953352     0.26000
C670        C  0.09679461  0.30591621  0.49444786    -0.40300
C671        C  0.09244721  0.28379711  0.50944695     0.32900
C672        C  0.05703731  0.26558330  0.51830090     0.14600
F673        F  0.99969120  0.29521228  0.49119342    -0.12700
F674        F  0.12210932  0.27933129  0.51559377    -0.13200
F675        F  0.07052581  0.33699320  0.47674051    -0.15500
F676        F  0.05412266  0.24523707  0.53296644    -0.14000
F677        F  0.48512025  0.18914177  0.51750686    -0.14000
F678        F  0.41387917  0.26907370  0.53811831    -0.15500
C679        C  0.33649366  0.67259353  0.54056971     0.47400
H680        H  0.33623768  0.67287790  0.52588453    -0.01600
C681        C  0.33834709  0.67281681  0.57506008     0.47500
H682        H  0.33938576  0.67292244  0.58975833    -0.01600
C683        C  0.37768485  0.69174136  0.54866109    -0.15300
C684        C  0.31749005  0.69361222  0.54899239    -0.15100
C685        C  0.31540714  0.63288343  0.54871926    -0.15400
C686        C  0.37852056  0.69188771  0.56672302    -0.15400
C687        C  0.31794020  0.69305490  0.56720705    -0.15000
C688        C  0.31733624  0.63333982  0.56690927    -0.15300
C689        C  0.17226126  0.84253610  0.45733123     0.47400
H690        H  0.17374590  0.84361119  0.44268600    -0.01600
C691        C  0.17163728  0.84030065  0.49174141     0.47500
H692        H  0.17217090  0.84010907  0.50641363    -0.01600
C693        C  0.19269546  0.82248036  0.46509357    -0.15300
C694        C  0.19142943  0.88144803  0.46625369    -0.15100
C695        C  0.13084283  0.82130279  0.46479438    -0.15400
C696        C  0.19244600  0.82106656  0.48312647    -0.15400
C697        C  0.19154622  0.88044543  0.48430853    -0.15000
C698        C  0.13038343  0.82083461  0.48319270    -0.15300
O699        O  0.10031611  0.75285251  0.69798041    -0.78900
O700        O  0.19606833  0.88775762  0.64866799    -0.63600
O701        O  0.16703308  0.81365190  0.68461039    -1.10200
C702        C  0.12571893  0.89066406  0.71408167     1.07900
O703        O  0.22388878  0.93265422  0.66857123    -0.76800
O704        O  0.21877800  0.92283576  0.70349337    -0.64400
Ni705      Ni  0.13552744  0.76177666  0.67897889     1.34900
C706        C  0.22074688  0.89763835  0.71241793     0.86700
O707        O  0.20468778  0.82719941  0.65219411    -0.77400
O708        O  0.16853032  0.76642569  0.65964065    -0.87700
C709        C  0.21746443  0.92224808  0.65249845     0.86300
O710        O  0.09967228  0.76595461  0.66366860    -0.65900
O711        O  0.14670845  0.91614327  0.70304523    -0.85100
C712        C  0.10332464  0.79136494  0.65305261     0.87100
C713        C  0.19518497  0.79264298  0.65054780     1.08700
H714        H  0.13230433  0.86443268  0.67541073     0.40500
O715        O  0.15680951  0.86975951  0.68079885    -1.07800
O716        O  0.19466661  0.86313339  0.71160306    -0.64500
Ni717      Ni  0.14499594  0.83523988  0.69981796     1.26300
O718        O  0.13390758  0.82331857  0.65231471    -0.64700
O719        O  0.12325967  0.85835186  0.71460477    -0.77000
C720        C  0.11029744  0.76310176  0.71390448     0.86500
O721        O  0.13248805  0.79767002  0.71758631    -0.64200
Ni722      Ni  0.18427487  0.92230162  0.68568173     1.27400
Ni723      Ni  0.18114656  0.84949091  0.66609596     1.26100
H724        H  0.19064689  0.81666052  0.68988974     0.41000
C725        C  0.48851163  0.50939491  0.79198405     0.47400
H726        H  0.48937387  0.50977350  0.77729099    -0.01600
C727        C  0.48654638  0.50822005  0.82642832     0.47500
H728        H  0.48562891  0.50768232  0.84111131    -0.01600
C729        C  0.50567530  0.99079214  0.80141686    -0.15300
C730        C  0.50528936  0.54858567  0.80033476    -0.15100
C731        C  0.44315584  0.98793343  0.79961393    -0.15400
C732        C  0.50401442  0.99010295  0.81953059    -0.15400
C733        C  0.50418403  0.54815836  0.81852343    -0.15000
C734        C  0.44088467  0.98691725  0.81774666    -0.15300
C735        C  0.14570088  0.83843694  0.87495917     0.47400
H736        H  0.14540260  0.83874155  0.86027056    -0.01600
C737        C  0.14687737  0.83768206  0.90944322     0.47500
H738        H  0.14734999  0.83727545  0.92414585    -0.01600
C739        C  0.12444196  0.79852395  0.88289849    -0.15300
C740        C  0.18699354  0.85713215  0.88311309    -0.15100
C741        C  0.12669368  0.85945691  0.88356725    -0.15400
C742        C  0.12572380  0.79850474  0.90102795    -0.15400
C743        C  0.18736025  0.85691214  0.90127820    -0.15000
C744        C  0.12691267  0.85835954  0.90175868    -0.15300
C745        C  0.35575157  0.67125314  0.16037600     0.47400
H746        H  0.35716948  0.67135133  0.17506116    -0.01600
C747        C  0.35230441  0.67134743  0.12591524     0.47500
H748        H  0.35086219  0.67148158  0.11122478    -0.01600
C749        C  0.37424094  0.65016013  0.15135468    -0.15300
C750        C  0.31411932  0.65277301  0.15286995    -0.15100
C751        C  0.37592003  0.71083068  0.15229269    -0.15400
C752        C  0.37256200  0.65059420  0.13318671    -0.15400
C753        C  0.31236531  0.65246513  0.13472245    -0.15000
C754        C  0.37446045  0.71078333  0.13417312    -0.15300
C755        C  0.01822135  0.99965906  0.20732287     0.47400
H756        H  0.01716459  0.99964270  0.19266607    -0.01600
C757        C  0.02086277  0.00184314  0.24177394     0.47500
H758        H  0.02244562  0.00352772  0.25642884    -0.01600
C759        C  0.06033894  0.52187636  0.21688302    -0.15300
C760        C  0.99809661  0.52036878  0.21537430    -0.15100
C761        C  0.99917610  0.96019433  0.21600475    -0.15400
C762        C  0.05897541  0.52147361  0.23499956    -0.15400
C763        C  0.99683075  0.51975633  0.23343906    -0.15000
C764        C  0.00289356  0.96177146  0.23424532    -0.15300
O765        O  0.28401514  0.58098024  0.36529186    -0.78900
O766        O  0.37868995  0.71292536  0.31500594    -0.63600
O767        O  0.35081901  0.64158070  0.35213111    -1.10200
C768        C  0.30768783  0.71971587  0.37859500     1.07900
O769        O  0.40949342  0.75792785  0.33485589    -0.76800
O770        O  0.40250329  0.75093679  0.37052483    -0.64400
Ni771      Ni  0.32209367  0.58894545  0.34779028     1.34900
C772        C  0.40204219  0.72546422  0.38025137     0.86700
O773        O  0.38589757  0.65180314  0.31915381    -0.77400
O774        O  0.35828395  0.59299887  0.33005720    -0.87700
C775        C  0.40334455  0.74686309  0.31879576     0.86300
O776        O  0.28710461  0.58873506  0.33033613    -0.65900
O777        O  0.33098785  0.74525431  0.36807587    -0.85100
C778        C  0.28700329  0.61344614  0.32028613     0.87100
C779        C  0.38096313  0.61857246  0.31942785     1.08700
H780        H  0.31658563  0.69273455  0.34156609     0.40500
O781        O  0.34064359  0.69736379  0.34709447    -1.07800
O782        O  0.37565699  0.69120614  0.37915901    -0.64500
Ni783      Ni  0.32744605  0.66353117  0.36627155     1.26300
O784        O  0.31478381  0.64737950  0.32017999    -0.64700
O785        O  0.30429086  0.68706470  0.37959500    -0.77000
C786        C  0.29194463  0.59247561  0.38117873     0.86500
O787        O  0.31361776  0.62715798  0.38448462    -0.64200
Ni788      Ni  0.36954329  0.74990451  0.35154550     1.27400
Ni789      Ni  0.36365025  0.67543185  0.33287562     1.26100
H790        H  0.37503220  0.64644171  0.35765448     0.41000
O791        O  0.04617839  0.59937063  0.00206366    -0.78900
O792        O  0.48731693  0.95515445  0.05079638    -0.63600
O793        O  0.03991788  0.53343881  0.01616277    -1.10200
C794        C  0.41159394  0.95927086  0.98708662     1.07900
O795        O  0.46666720  0.91127256  0.03023878    -0.76800
O796        O  0.46731460  0.92219550  0.99519192    -0.64400
Ni797      Ni  0.06366749  0.58509980  0.02290198     1.34900
C798        C  0.99646067  0.94850467  0.98667953     0.86700
O799        O  0.06191661  0.51559137  0.04811661    -0.77400
O800        O  0.08511958  0.57740363  0.04445797    -0.87700
C801        C  0.47324727  0.92094066  0.04642618     0.86300
O802        O  0.01988794  0.58064633  0.03492342    -0.65900
O803        O  0.40495520  0.93327484  0.99815014    -0.85100
C804        C  0.49836012  0.55671576  0.04732757     0.87100
C805        C  0.08498168  0.54974268  0.05222555     1.08700
H806        H  0.44859815  0.98302105  0.02520741     0.40500
O807        O  0.46631294  0.97660913  0.01955877    -1.07800
O808        O  0.00620025  0.98304796  0.98775318    -0.64500
Ni809      Ni  0.49367335  0.51249986  0.00052856     1.26300
O810        O  0.49470056  0.52401507  0.04786149    -0.64700
O811        O  0.44407045  0.98996739  0.98609443    -0.77000
C812        C  0.03904674  0.58638319  0.98637616     0.86500
O813        O  0.02183392  0.55128756  0.98323417    -0.64200
Ni814      Ni  0.43706803  0.92424825  0.01424498     1.27400
Ni815      Ni  0.01117633  0.99595487  0.03366555     1.26100
H816        H  0.05966738  0.52948392  0.01080594     0.41000
C817        C  0.13069346  0.57946962  0.27141322     0.14600
C818        C  0.15648145  0.56521915  0.27131274     0.01600
C819        C  0.15065552  0.53734238  0.25880967     0.16600
C820        C  0.11947386  0.52371870  0.24677592     0.26000
C821        C  0.09349885  0.53766607  0.24702006    -0.40400
C822        C  0.09922133  0.56546818  0.25949618     0.33000
C823        C  0.18873716  0.57828333  0.28451077     0.01600
F824        F  0.17519692  0.52319405  0.25829940    -0.12700
F825        F  0.07425996  0.57903805  0.26018172    -0.13200
C826        C  0.19178919  0.55208223  0.29538276     0.16600
C827        C  0.22357220  0.56341524  0.30685889     0.26000
C828        C  0.25283924  0.60168592  0.30815489    -0.40300
C829        C  0.24882694  0.62815972  0.29770095     0.32900
C830        C  0.21724364  0.61649816  0.28594036     0.14600
F831        F  0.16375999  0.51522797  0.29490907    -0.12700
F832        F  0.27554202  0.66537603  0.29867805    -0.13200
F833        F  0.22567932  0.53647323  0.31647806    -0.15500
F834        F  0.21511735  0.64248755  0.27557413    -0.14000
F835        F  0.13526608  0.60611229  0.28339719    -0.14000
F836        F  0.11381199  0.49588311  0.23530817    -0.15500
C837        C  0.42864162  0.79778721  0.27475907     0.14600
C838        C  0.46091201  0.83244333  0.27966332     0.01600
C839        C  0.47738826  0.83664780  0.29660105     0.16600
C840        C  0.46002988  0.80779133  0.30896933     0.26000
C841        C  0.42551131  0.77418745  0.30467493    -0.40400
C842        C  0.41094076  0.76883407  0.28717588     0.33000
C843        C  0.47359866  0.86582132  0.26828109     0.01600
F844        F  0.01266098  0.87260807  0.30144317    -0.12700
F845        F  0.37807791  0.73672620  0.28238153    -0.13200
C846        C  0.46668586  0.89464875  0.27379421     0.16600
C847        C  0.47603370  0.92546143  0.26293327     0.26000
C848        C  0.49367363  0.92881067  0.24641934    -0.40300
C849        C  0.00425142  0.90174771  0.24100758     0.32900
C850        C  0.49152812  0.86894803  0.25198321     0.14600
F851        F  0.44958206  0.89231322  0.28958247    -0.12700
F852        F  0.02390998  0.90541001  0.22586383    -0.13200
F853        F  0.46653001  0.95127417  0.26851104    -0.15500
F854        F  0.49851216  0.84137261  0.24640179    -0.14000
F855        F  0.41264174  0.79297506  0.25832844    -0.14000
F856        F  0.47639930  0.81334185  0.32535679    -0.15500
C857        C  0.48165978  0.59034571  0.25753086     0.14600
C858        C  0.44759306  0.56689316  0.26686936     0.01600
C859        C  0.42783976  0.52793216  0.26365660     0.16600
C860        C  0.44297645  0.51241753  0.25192042     0.26000
C861        C  0.47852812  0.53547222  0.24366898    -0.40400
C862        C  0.49708957  0.57464433  0.24596115     0.33000
C863        C  0.43324613  0.58255433  0.28048530     0.01600
F864        F  0.39396977  0.50494935  0.27197638    -0.12700
F865        F  0.03166876  0.59870571  0.23840111    -0.13200
C866        C  0.42076337  0.60810107  0.27594340     0.16600
C867        C  0.40541951  0.62131951  0.28884699     0.26000
C868        C  0.40155538  0.60841822  0.30636678    -0.40300
C869        C  0.41481053  0.58338536  0.31092283     0.32900
C870        C  0.43089214  0.57087146  0.29810427     0.14600
F871        F  0.42183201  0.61888610  0.25888356    -0.12700
F872        F  0.41215982  0.57100046  0.32778811    -0.13200
F873        F  0.39234644  0.64505387  0.28400699    -0.15500
F874        F  0.44394754  0.54705490  0.30283396    -0.14000
F875        F  0.50072907  0.62816185  0.26018523    -0.14000
F876        F  0.42503228  0.97429981  0.24979653    -0.15500
C877        C  0.44089399  0.78082378  0.10064535     0.14600
C878        C  0.42700859  0.80633804  0.09990420     0.01600
C879        C  0.39672464  0.80138031  0.11109369     0.16600
C880        C  0.37988920  0.77068312  0.12257265     0.26000
C881        C  0.39344682  0.74484705  0.12308888    -0.40400
C882        C  0.42411794  0.75023009  0.11210714     0.33000
C883        C  0.44165463  0.83603725  0.08635479     0.01600
F884        F  0.38218318  0.82518176  0.11022032    -0.12700
F885        F  0.43753318  0.72553686  0.11233744    -0.13200
C886        C  0.43529015  0.82596814  0.06840075     0.16600
C887        C  0.44651205  0.85353105  0.05542413     0.26000
C888        C  0.46454132  0.89197247  0.06016338    -0.40300
C889        C  0.47214291  0.90199001  0.07824318     0.32900
C890        C  0.46058782  0.87418472  0.09120120     0.14600
F891        F  0.41681032  0.78916446  0.06344799    -0.12700
F892        F  0.49017849  0.93859221  0.08349227    -0.13200
F893        F  0.94608180  0.84544033  0.03983043    -0.15500
F894        F  0.46774068  0.88446027  0.10851143    -0.14000
F895        F  0.47032643  0.78528805  0.09003664    -0.14000
F896        F  0.34906651  0.76512648  0.13241675    -0.15500
C897        C  0.23311326  0.63989925  0.10262641     0.14600
C898        C  0.20631505  0.60136628  0.10437026     0.01600
C899        C  0.21416110  0.57964226  0.11627647     0.16600
C900        C  0.24875648  0.59622104  0.12616936     0.26000
C901        C  0.27575421  0.63472915  0.12428480    -0.40400
C902        C  0.26773781  0.65643637  0.11245255     0.33000
C903        C  0.17189641  0.58361169  0.09261976     0.01600
F904        F  0.18846873  0.54238305  0.11815641    -0.12700
F905        F  0.29322515  0.69374223  0.11059945    -0.13200
C906        C  0.17001696  0.55935380  0.07902125     0.16600
C907        C  0.14046670  0.54671075  0.06620140     0.26000
C908        C  0.11269992  0.55840303  0.06685012    -0.40300
C909        C  0.11358228  0.58132547  0.08087253     0.32900
C910        C  0.14298360  0.59379480  0.09373614     0.14600
F911        F  0.19821546  0.54988965  0.07756730    -0.12700
F912        F  0.08631422  0.59212763  0.08187284    -0.13200
F913        F  0.14052640  0.52526900  0.05251344    -0.15500
F914        F  0.14393605  0.61663659  0.10698888    -0.14000
F915        F  0.22618018  0.66120079  0.09099283    -0.14000
F916        F  0.25643225  0.57453493  0.13721761    -0.15500
C917        C  0.44639663  0.63275499  0.11001480     0.14600
C918        C  0.42300068  0.60579003  0.09726222     0.01600
C919        C  0.38292973  0.59300398  0.09657656     0.16600
C920        C  0.36643952  0.60726149  0.10841404     0.26000
C921        C  0.38980874  0.63427330  0.12118723    -0.40400
C922        C  0.42991744  0.64692039  0.12190414     0.33000
C923        C  0.44058181  0.59183515  0.08429855     0.01600
F924        F  0.35987729  0.56671494  0.08441485    -0.12700
F925        F  0.45331219  0.67399811  0.13368868    -0.13200
C926        C  0.44912660  0.56353346  0.08893212     0.16600
C927        C  0.46649107  0.55085806  0.07670250     0.26000
C928        C  0.47597559  0.56670443  0.05968051    -0.40300
C929        C  0.46663156  0.59467587  0.05504088     0.32900
C930        C  0.44910471  0.60707040  0.06724982     0.14600
F931        F  0.44106668  0.54856157  0.10540302    -0.12700
F932        F  0.00293658  0.62917621  0.04495028    -0.13200
F933        F  0.47548071  0.52427129  0.08178182    -0.15500
F934        F  0.44111367  0.63453974  0.06255242    -0.14000
F935        F  0.48532327  0.64594669  0.11065827    -0.14000
F936        F  0.32757075  0.59433144  0.10757647    -0.15500
C937        C  0.39376772  0.57255314  0.16610139     0.14600
C938        C  0.42499598  0.59173616  0.17809633     0.01600
C939        C  0.43784190  0.62979729  0.18203351     0.16600
C940        C  0.42059766  0.64855383  0.17372446     0.26000
C941        C  0.39027475  0.62960840  0.16135747    -0.40400
C942        C  0.37629642  0.59119207  0.15798808     0.33000
C943        C  0.44362110  0.57187722  0.18669640     0.01600
F944        F  0.46688936  0.64873053  0.19405578    -0.12700
F945        F  0.34552103  0.57163507  0.14685977    -0.13200
C946        C  0.48407040  0.58621041  0.18564408     0.16600
C947        C  0.50157521  0.56805806  0.19432118     0.26000
C948        C  0.47890086  0.53522214  0.20407044    -0.40300
C949        C  0.43841195  0.52000449  0.20445761     0.32900
C950        C  0.42097234  0.53839175  0.19608418     0.14600
F951        F  0.50661366  0.61782016  0.17623419    -0.12700
F952        F  0.41573212  0.48734338  0.21308571    -0.13200
F953        F  0.04219137  0.58564388  0.19435205    -0.15500
F954        F  0.38202712  0.52408006  0.19764385    -0.14000
F955        F  0.38064923  0.53589280  0.16194299    -0.14000
F956        F  0.43425335  0.68549932  0.17738705    -0.15500
C957        C  0.23753831  0.59359207  0.18623661     0.14600
C958        C  0.20929494  0.60421039  0.18302531     0.01600
C959        C  0.21729135  0.63334389  0.17108555     0.16600
C960        C  0.25229407  0.65049179  0.16192089     0.26000
C961        C  0.27945551  0.63817343  0.16426770    -0.40400
C962        C  0.27236842  0.61039754  0.17686563     0.33000
C963        C  0.17070153  0.58350732  0.19134820     0.01600
F964        F  0.19048240  0.64407021  0.16773983    -0.12700
F965        F  0.29825094  0.59821222  0.17943591    -0.13200
C966        C  0.15710394  0.60228203  0.20218221     0.16600
C967        C  0.12053763  0.58236404  0.20997082     0.26000
C968        C  0.09723232  0.54334007  0.20718376    -0.40300
C969        C  0.11073098  0.52471228  0.19625462     0.32900
C970        C  0.14700983  0.54469511  0.18824105     0.14600
F971        F  0.17959028  0.63970719  0.20551252    -0.12700
F972        F  0.08987218  0.48689106  0.19411864    -0.13200
F973        F  0.10803032  0.60106134  0.22044616    -0.15500
F974        F  0.15911054  0.52615627  0.17742714    -0.14000
F975        F  0.23098745  0.56643453  0.19821835    -0.14000
F976        F  0.25934704  0.67869883  0.15050413    -0.15500
C977        C  0.47004504  0.88472828  0.18078672     0.14600
C978        C  0.43944745  0.85334146  0.18903883     0.01600
C979        C  0.42512837  0.85878096  0.20504861     0.16600
C980        C  0.44203031  0.89451136  0.21286422     0.26000
C981        C  0.47625635  0.92482450  0.20589950    -0.40400
C982        C  0.48865339  0.91987909  0.18921580     0.33000
C983        C  0.42275223  0.81529648  0.18083019     0.01600
F984        F  0.39567910  0.82932235  0.21352548    -0.12700
F985        F  0.01853436  0.94603931  0.18118748    -0.13200
C986        C  0.44744008  0.80189706  0.17505591     0.16600
C987        C  0.43223715  0.76768650  0.16588945     0.26000
C988        C  0.39204085  0.74546757  0.16314197    -0.40300
C989        C  0.36710888  0.75752691  0.16980369     0.32900
C990        C  0.38231919  0.79254466  0.17820061     0.14600
F991        F  0.48634963  0.82202175  0.17825806    -0.12700
F992        F  0.32806762  0.73623700  0.16732070    -0.13200
F993        F  0.45673986  0.75643719  0.15949530    -0.15500
F994        F  0.35761060  0.80485943  0.18301611    -0.14000
F995        F  0.48223860  0.88130246  0.16452372    -0.14000
F996        F  0.42504990  0.89918157  0.22741920    -0.15500
C997        C  0.26104155  0.87023854  0.93666195     0.14600
C998        C  0.28625733  0.90943626  0.93635835     0.01600
C999        C  0.27987476  0.93111331  0.92375799     0.16600
C1000       C  0.24825396  0.91393076  0.91195988     0.26000
C1001       C  0.22273645  0.87489214  0.91258301    -0.40400
C1002       C  0.22938132  0.85319640  0.92497578     0.33000
C1003       C  0.31852077  0.92727479  0.94949529     0.01600
F1004       F  0.30331833  0.96904010  0.92334367    -0.12700
F1005       F  0.20519449  0.81540294  0.92571883    -0.13200
C1006       C  0.35738660  0.94850211  0.94404987     0.16600
C1007       C  0.38786062  0.96146621  0.95649312     0.26000
C1008       C  0.37991055  0.95230332  0.97447379    -0.40300
C1009       C  0.34096385  0.93279202  0.97998300     0.32900
C1010       C  0.31059765  0.92096457  0.96763967     0.14600
F1011       F  0.36592931  0.95472744  0.92660354    -0.12700
F1012       F  0.33227235  0.92464598  0.99732674    -0.13200
F1013       F  0.42513295  0.98068384  0.95079843    -0.15500
F1014       F  0.27329367  0.90249636  0.97335820    -0.14000
F1015       F  0.26715739  0.84840767  0.94830178    -0.14000
F1016       F  0.24146965  0.93558979  0.90049901    -0.15500
C1017       C  0.06746986  0.72366748  0.93457224     0.14600
C1018       C  0.08238659  0.69917962  0.93256225     0.01600
C1019       C  0.11164383  0.70733783  0.92019719     0.16600
C1020       C  0.12588428  0.73978601  0.90992800     0.26000
C1021       C  0.11069480  0.76414529  0.91183312    -0.40400
C1022       C  0.08165160  0.75607733  0.92430222     0.33000
C1023       C  0.07210406  0.66895507  0.94545361     0.01600
F1024       F  0.12756183  0.68479353  0.91868977    -0.12700
F1025       F  0.06723701  0.77970041  0.92657867    -0.13200
C1026       C  0.04210513  0.63200868  0.94212063     0.16600
C1027       C  0.03142756  0.60446701  0.95523954     0.26000
C1028       C  0.05075271  0.61385631  0.97179416    -0.40300
C1029       C  0.08148407  0.65090092  0.97472831     0.32900
C1030       C  0.09184680  0.67807417  0.96171091     0.14600
F1031       F  0.02268583  0.62296034  0.92638128    -0.12700
F1032       F  0.10177864  0.66103786  0.99025192    -0.13200
F1033       F  0.50757604  0.56770100  0.95054718    -0.15500
F1034       F  0.12095379  0.71372329  0.96506257    -0.14000
F1035       F  0.04015600  0.71675312  0.94695274    -0.14000
F1036       F  0.15572410  0.74840509  0.89873940    -0.15500
C1037       C  0.03708249  0.89256077  0.96441807     0.14600
C1038       C  0.05351318  0.91371329  0.94915261     0.01600
C1039       C  0.05150760  0.94649643  0.94617058     0.16600
C1040       C  0.03335853  0.95818084  0.95843702     0.26000
C1041       C  0.01668019  0.93695790  0.97383524    -0.40400
C1042       C  0.01880126  0.90398654  0.97666131     0.33000
C1043       C  0.07264212  0.90120639  0.93638025     0.01600
F1044       F  0.06667437  0.96684799  0.93125693    -0.12700
F1045       F  0.00375764  0.88303369  0.99142793    -0.13200
C1046       C  0.05036136  0.87376809  0.92361886     0.16600
C1047       C  0.06811709  0.86020887  0.91215577     0.26000
C1048       C  0.10833604  0.87379700  0.91341506    -0.40300
C1049       C  0.13059360  0.90117920  0.92625590     0.32900
C1050       C  0.11286355  0.91502043  0.93758855     0.14600
F1051       F  0.01131681  0.85967935  0.92252261    -0.12700
F1052       F  0.16955539  0.91490919  0.92760499    -0.13200
F1053       F  0.04591242  0.83291861  0.90021989    -0.15500
F1054       F  0.13472575  0.94140767  0.94995169    -0.14000
F1055       F  0.03886013  0.86077269  0.96745729    -0.14000
F1056       F  0.03121612  0.98964616  0.95498557    -0.15500
C1057       C  0.02058892  0.92471986  0.84828452     0.14600
C1058       C  0.06069199  0.93843529  0.84649311     0.01600
C1059       C  0.08305257  0.97112681  0.83659259     0.16600
C1060       C  0.06526940  0.98899631  0.82803629     0.26000
C1061       C  0.02488117  0.97432503  0.82921421    -0.40400
C1062       C  0.50035914  0.94154527  0.84074520     0.33000
C1063       C  0.07923997  0.91895577  0.85522120     0.01600
F1064       F  0.12194395  0.98520333  0.83490728    -0.12700
F1065       F  0.46137254  0.92729587  0.84204949    -0.13200
C1066       C  0.06987961  0.88248075  0.84990371     0.16600
C1067       C  0.08581122  0.86329683  0.85890525     0.26000
C1068       C  0.11178058  0.88059005  0.87317109    -0.40300
C1069       C  0.12295039  0.91804963  0.87768419     0.32900
C1070       C  0.10615892  0.93671321  0.86904728     0.14600
F1071       F  0.04528242  0.86551348  0.83599690    -0.12700
F1072       F  0.15050082  0.93683711  0.89033204    -0.13200
F1073       F  0.07496065  0.82747493  0.85402004    -0.15500
F1074       F  0.11560359  0.97193317  0.87440060    -0.14000
F1075       F  0.49557561  0.89159590  0.85864926    -0.14000
F1076       F  0.09306348  0.52093717  0.82065404    -0.15500
C1077       C  0.06723543  0.62909417  0.85076242     0.14600
C1078       C  0.05218047  0.65335986  0.84771956     0.01600
C1079       C  0.02001036  0.64161033  0.83624698     0.16600
C1080       C  0.50206817  0.60681197  0.82614703     0.26000
C1081       C  0.02009414  0.58332827  0.82997859    -0.40400
C1082       C  0.05120177  0.59425395  0.84198861     0.33000
C1083       C  0.07033482  0.69121097  0.85616890     0.01600
F1084       F  0.50474506  0.66560814  0.83037658    -0.12700
F1085       F  0.06727519  0.57204509  0.84453044    -0.13200
C1086       C  0.10930185  0.71817100  0.85276691     0.16600
C1087       C  0.12637528  0.75391252  0.86071654     0.26000
C1088       C  0.10481577  0.76319604  0.87223726    -0.40300
C1089       C  0.06549751  0.73663041  0.87520583     0.32900
C1090       C  0.04852667  0.70087809  0.86737095     0.14600
F1091       F  0.13084987  0.70978084  0.84178036    -0.12700
F1092       F  0.04372977  0.74511869  0.88600873    -0.13200
F1093       F  0.16449604  0.77878448  0.85786518    -0.15500
F1094       F  0.01108975  0.67524407  0.87114478    -0.14000
F1095       F  0.09767376  0.63932673  0.86211690    -0.14000
F1096       F  0.47220310  0.59678281  0.81447318    -0.15500
C1097       C  0.26565632  0.92104309  0.85141942     0.14600
C1098       C  0.29357772  0.90971264  0.85389710     0.01600
C1099       C  0.28534160  0.87970006  0.86536209     0.16600
C1100       C  0.25018163  0.86185381  0.87446393     0.26000
C1101       C  0.22272327  0.87381541  0.87231542    -0.40400
C1102       C  0.23036599  0.90303256  0.86047403     0.33000
C1103       C  0.33147854  0.92943550  0.84473839     0.01600
F1104       F  0.31188329  0.86840104  0.86813512    -0.12700
F1105       F  0.20430960  0.91510203  0.85821144    -0.13200
C1106       C  0.35690879  0.96810229  0.84763988     0.16600
C1107       C  0.39279834  0.98666918  0.83908613     0.26000
C1108       C  0.40370860  0.96690897  0.82744813    -0.40300
C1109       C  0.37855542  0.92816380  0.82472286     0.32900
C1110       C  0.34270599  0.90959392  0.83326550     0.14600
F1111       F  0.34713543  0.98775119  0.85894088    -0.12700
F1112       F  0.38893989  0.90823022  0.81391636    -0.13200
F1113       F  0.41970350  0.52325588  0.84038448    -0.15500
F1114       F  0.31866906  0.87230327  0.83015240    -0.14000
F1115       F  0.27266654  0.94965208  0.84026535    -0.14000
F1116       F  0.24295875  0.83291207  0.88543658    -0.15500
C1117       C  0.35371859  0.97356130  0.77457827     0.14600
C1118       C  0.34945113  0.94676502  0.76182671     0.01600
C1119       C  0.37541325  0.93281593  0.76184812     0.16600
C1120       C  0.40540243  0.94562740  0.77444709     0.26000
C1121       C  0.40948826  0.97218002  0.78729112    -0.40400
C1122       C  0.38339967  0.98600947  0.78731312     0.33000
C1123       C  0.31786323  0.93349289  0.74851102     0.01600
F1124       F  0.37227363  0.90755768  0.74937487    -0.12700
F1125       F  0.38757413  0.01260243  0.79923590    -0.13200
C1126       C  0.31738782  0.95859219  0.73607290     0.16600
C1127       C  0.28637950  0.94676520  0.72411181     0.26000
C1128       C  0.25489127  0.90941253  0.72443505    -0.40300
C1129       C  0.25626774  0.88399407  0.73664804     0.32900
C1130       C  0.28754114  0.89601284  0.74853584     0.14600
F1131       F  0.34713410  0.99468550  0.73550241    -0.12700
F1132       F  0.22706635  0.84769605  0.73744228    -0.13200
F1133       F  0.28739786  0.97214929  0.71226659    -0.15500
F1134       F  0.28769404  0.87131592  0.76046950    -0.14000
F1135       F  0.32917294  0.98773042  0.77462047    -0.14000
F1136       F  0.43736751  0.43414292  0.77261121    -0.15500
C1137       C  0.06728460  0.66823898  0.73625989     0.14600
C1138       C  0.06609824  0.67750588  0.75400290     0.01600
C1139       C  0.07974049  0.71526017  0.75872671     0.16600
C1140       C  0.09416126  0.74339181  0.74578014     0.26000
C1141       C  0.09493695  0.73403298  0.72790476    -0.40400
C1142       C  0.08132527  0.69602906  0.72334477     0.33000
C1143       C  0.05035493  0.64722254  0.76732661     0.01600
F1144       F  0.07842978  0.72472803  0.77581086    -0.12700
F1145       F  0.08236466  0.68560276  0.70638925    -0.13200
C1146       C  0.07456084  0.64572078  0.78062848     0.16600
C1147       C  0.06071412  0.61441749  0.79175671     0.26000
C1148       C  0.02237049  0.58438086  0.78978152    -0.40300
C1149       C  0.49582238  0.58413693  0.77567353     0.32900
C1150       C  0.01179677  0.61766925  0.76568417     0.14600
F1151       F  0.11214270  0.67365757  0.78222511    -0.12700
F1152       F  0.45909758  0.55508621  0.77316245    -0.13200
F1153       F  0.08528216  0.61267222  0.80386194    -0.15500
F1154       F  0.48570742  0.61572407  0.75161051    -0.14000
F1155       F  0.05542215  0.63211277  0.73146809    -0.14000
F1156       F  0.10662805  0.77954099  0.75069481    -0.15500
C1157       C  0.07743335  0.94012292  0.73561271     0.14600
C1158       C  0.07246098  0.92680757  0.75306830     0.01600
C1159       C  0.08176432  0.89865250  0.75723120     0.16600
C1160       C  0.09696092  0.88508607  0.74430222     0.26000
C1161       C  0.10415825  0.90022773  0.72711888    -0.40400
C1162       C  0.09343820  0.92734929  0.72286896     0.33000
C1163       C  0.05775532  0.94277668  0.76668038     0.01600
F1164       F  0.07774222  0.88540947  0.77398543    -0.12700
F1165       F  0.09847883  0.94170068  0.70629331    -0.13200
C1166       C  0.02499266  0.91924445  0.77686365     0.16600
C1167       C  0.00907389  0.93479261  0.78831385     0.26000
C1168       C  0.02499376  0.97396928  0.78939356    -0.40300
C1169       C  0.05824706  0.99750837  0.77967662     0.32900
C1170       C  0.07503199  0.98210546  0.76872357     0.14600
F1171       F  0.00727052  0.88125910  0.77512005    -0.12700
F1172       F  0.07455059  0.03547237  0.78087137    -0.13200
F1173       F  0.47404267  0.91141427  0.79846890    -0.15500
F1174       F  0.10805612  0.00565580  0.75996085    -0.14000
F1175       F  0.06674743  0.96569738  0.73083934    -0.14000
F1176       F  0.10638339  0.85852299  0.74886709    -0.15500
C1177       C  0.26300818  0.77335898  0.39924463     0.14600
C1178       C  0.25104900  0.75557025  0.41571005     0.01600
C1179       C  0.25359235  0.72307780  0.41905642     0.16600
C1180       C  0.26957625  0.70972499  0.40648796     0.26000
C1181       C  0.28453341  0.72942761  0.39058283    -0.40400
C1182       C  0.27967771  0.76058125  0.38685237     0.33000
C1183       C  0.23701910  0.77177541  0.42940856     0.01600
F1184       F  0.24245046  0.70531870  0.43485514    -0.12700
F1185       F  0.29133211  0.77905099  0.37122878    -0.13200
C1186       C  0.20066750  0.74974953  0.43741611     0.16600
C1187       C  0.18679680  0.76603299  0.44953007     0.26000
C1188       C  0.20888326  0.80451365  0.45365355    -0.40300
C1189       C  0.24533279  0.82633769  0.44593225     0.32900
C1190       C  0.25957607  0.81006225  0.43409653     0.14600
F1191       F  0.17791326  0.71291503  0.43296170    -0.12700
F1192       F  0.26703341  0.86353695  0.44973376    -0.13200
F1193       F  0.15122424  0.74458447  0.45676754    -0.15500
F1194       F  0.29542155  0.83179446  0.42713588    -0.14000
F1195       F  0.25898990  0.80357354  0.39520885    -0.14000
F1196       F  0.27194823  0.67853071  0.41030443    -0.15500
C1197       C  0.98105259  0.72518044  0.40818033     0.14600
C1198       C  0.99461923  0.75814207  0.41837888     0.01600
C1199       C  0.47724534  0.77969668  0.41600316     0.16600
C1200       C  0.44670046  0.76898509  0.40379516     0.26000
C1201       C  0.43357380  0.73611982  0.39354951    -0.40400
C1202       C  0.45078878  0.71354426  0.39616995     0.33000
C1203       C  0.02996835  0.77212119  0.42973877     0.01600
F1204       F  0.48912697  0.81143933  0.42580760    -0.12700
F1205       F  0.43859278  0.68153144  0.38655144    -0.12000
C1206       C  0.06256731  0.80696321  0.42595846     0.16600
C1207       C  0.09506601  0.82244185  0.43716444     0.26000
C1208       C  0.09612112  0.80333539  0.45252464    -0.40300
C1209       C  0.06435021  0.76699813  0.45559929     0.32900
C1210       C  0.03132845  0.75182070  0.44445535     0.14600
F1211       F  0.06289450  0.82624584  0.41128547    -0.12700
F1212       F  0.06528267  0.74594289  0.46924609    -0.13200
F1213       F  0.12509922  0.85662532  0.43290314    -0.15500
F1214       F  0.50149191  0.71734593  0.44780959    -0.14000
F1215       F  0.99886767  0.70423084  0.40931720    -0.14000
F1216       F  0.42945013  0.79039203  0.40222265    -0.15500
C1217       C  0.19075733  0.95965009  0.44015441     0.14600
C1218       C  0.22949844  0.97990089  0.43462763     0.01600
C1219       C  0.25635824  0.96928027  0.44052064     0.16600
C1220       C  0.24424819  0.93786519  0.45134824     0.26000
C1221       C  0.20507773  0.91642145  0.45607599    -0.40400
C1222       C  0.17866532  0.92819079  0.45092642     0.33000
C1223       C  0.24137710  0.01021819  0.42160609     0.01600
F1224       F  0.29392253  0.98852325  0.43520869    -0.12700
F1225       F  0.14111585  0.90908472  0.45623174    -0.13200
C1226       C  0.26235162  0.55011907  0.42693919     0.16600
C1227       C  0.27588690  0.57656591  0.41330454     0.26000
C1228       C  0.27545055  0.56495111  0.39567617    -0.40300
C1229       C  0.26058151  0.52638357  0.39201625     0.32900
C1230       C  0.24724128  0.50029920  0.40562500     0.14600
F1231       F  0.26317535  0.56156666  0.44387357    -0.12700
F1232       F  0.26009118  0.51379974  0.37534173    -0.13200
F1233       F  0.28943449  0.61333524  0.41737818    -0.15500
F1234       F  0.20310987  0.96492665  0.39930462    -0.14000
F1235       F  0.16464853  0.97010898  0.43490195    -0.14000
F1236       F  0.27063278  0.92825074  0.45710198    -0.15500
C1237       C  0.22563366  0.73264322  0.62455209     0.14600
C1238       C  0.25053963  0.75803402  0.61203734     0.01600
C1239       C  0.25876496  0.79552159  0.61236566     0.16600
C1240       C  0.24122709  0.80726656  0.62495095     0.26000
C1241       C  0.21539839  0.78151144  0.63744321    -0.40400
C1242       C  0.20834033  0.74410033  0.63714851     0.33000
C1243       C  0.26882597  0.74481532  0.59927787     0.01600
F1244       F  0.28347743  0.82054060  0.60043069    -0.12700
F1245       F  0.18499115  0.71828486  0.64915987    -0.13200
C1246       C  0.24596875  0.71845025  0.58621718     0.16600
C1247       C  0.26163949  0.70096773  0.57599710     0.26000
C1248       C  0.30053306  0.71003426  0.57859195    -0.40300
C1249       C  0.32319181  0.73624406  0.59178675     0.32900
C1250       C  0.30754352  0.75383037  0.60192757     0.14600
F1251       F  0.20818700  0.70899000  0.58373520    -0.12700
F1252       F  0.36052256  0.74502386  0.59483809    -0.13200
F1253       F  0.23859157  0.67447200  0.56390931    -0.15500
F1254       F  0.32965272  0.77857350  0.61482256    -0.14000
F1255       F  0.21862587  0.69662600  0.62475525    -0.14000
F1256       F  0.24937060  0.84362162  0.62476530    -0.15500
C1257       C  0.46489194  0.76411586  0.59315994     0.14600
C1258       C  0.47732712  0.74133750  0.60162542     0.01600
C1259       C  0.45899636  0.70273971  0.59741837     0.16600
C1260       C  0.42738340  0.68683863  0.58565024     0.26000
C1261       C  0.41436153  0.70945041  0.57761933    -0.40400
C1262       C  0.43383203  0.74829417  0.58107829     0.33000
C1263       C  0.50832132  0.75726658  0.61533815     0.01600
F1264       F  0.47155171  0.68043945  0.60485680    -0.12700
F1265       F  0.42177232  0.77063976  0.57330972    -0.13200
C1266       C  0.50079626  0.74202965  0.63243259     0.16600
C1267       C  0.03251686  0.75563293  0.64549827     0.26000
C1268       C  0.07062787  0.78254716  0.64074903    -0.40300
C1269       C  0.07719752  0.79858096  0.62375626     0.32900
C1270       C  0.04666249  0.78575558  0.61137251     0.14600
F1271       F  0.46449768  0.71461830  0.63684144    -0.12700
F1272       F  0.11340725  0.82527965  0.61882162    -0.13200
F1273       F  0.02460433  0.74127174  0.66209738    -0.15500
F1274       F  0.05405607  0.80008567  0.59476473    -0.14000
F1275       F  0.48169615  0.80131248  0.59717756    -0.14000
F1276       F  0.40913045  0.64930238  0.58224881    -0.15500
C1277       C  0.30620794  0.54303928  0.58604199     0.14600
C1278       C  0.28005938  0.53630159  0.59977095     0.01600
C1279       C  0.26640700  0.56154015  0.60277724     0.16600
C1280       C  0.27850624  0.59309718  0.59205255     0.26000
C1281       C  0.30414865  0.59957828  0.57809036    -0.40400
C1282       C  0.31831881  0.57459725  0.57528308     0.33000
C1283       C  0.26835076  0.50413523  0.61169667     0.01600
F1284       F  0.24146119  0.55557808  0.61618191    -0.12700
F1285       F  0.34481868  0.58145043  0.56250037    -0.13200
C1286       C  0.28582620  0.51011594  0.62844532     0.16600
C1287       C  0.25886968  0.98920150  0.64284496     0.26000
C1288       C  0.23501702  0.95084617  0.63834581    -0.40300
C1289       C  0.22604009  0.94084954  0.62031786     0.32900
C1290       C  0.23905622  0.96870907  0.60730286     0.14600
F1291       F  0.31587706  0.54450329  0.63301259    -0.12700
F1292       F  0.20383935  0.90430562  0.61525891    -0.13200
F1293       F  0.26957037  0.00042387  0.65987605    -0.15500
F1294       F  0.22900053  0.95859600  0.59011530    -0.14000
F1295       F  0.32070398  0.51959534  0.58338657    -0.14000
F1296       F  0.26480514  0.61705954  0.59513838    -0.15500
C1297       C  0.29343024  0.76827828  0.53398669     0.14600
C1298       C  0.26686941  0.74967511  0.52005168     0.01600
C1299       C  0.25935535  0.71363202  0.51485694     0.16600
C1300       C  0.27636641  0.69571798  0.52405361     0.26000
C1301       C  0.30209512  0.71394793  0.53827688    -0.40400
C1302       C  0.31186681  0.75112720  0.54258204     0.33000
C1303       C  0.24750247  0.76806845  0.51082129     0.01600
F1304       F  0.23563087  0.69579048  0.50080185    -0.12700
F1305       F  0.33929561  0.77097528  0.55513356    -0.13200
C1306       C  0.26976819  0.80444531  0.50382857     0.16600
C1307       C  0.25165104  0.82180886  0.49512589     0.26000
C1308       C  0.21104098  0.80318715  0.49321958    -0.40300
C1309       C  0.18877623  0.76642384  0.49962764     0.32900
C1310       C  0.20675109  0.74922957  0.50866307     0.14600
F1311       F  0.30920675  0.82275175  0.50493894    -0.12700
F1312       F  0.14989411  0.74651571  0.49643189    -0.13200
F1313       F  0.27388795  0.85640074  0.48803944    -0.15500
F1314       F  0.18432078  0.71419119  0.51532145    -0.14000
F1315       F  0.30094520  0.80280662  0.53956679    -0.14000
F1316       F  0.26676024  0.66010893  0.51935854    -0.15500
C1317       C  0.26210660  0.96729504  0.51046468     0.14600
C1318       C  0.24171500  0.98731519  0.51127116     0.01600
C1319       C  0.20333074  0.97004757  0.50453324     0.16600
C1320       C  0.18602265  0.93393088  0.49706465     0.26000
C1321       C  0.20722262  0.91504030  0.49538152    -0.40400
C1322       C  0.24515125  0.93169972  0.50238315     0.33000
C1323       C  0.25844692  0.52643883  0.52103962     0.01600
F1324       F  0.18289941  0.49006638  0.50485609    -0.12700
F1325       F  0.26611799  0.91387844  0.50105130    -0.13200
C1326       C  0.29539119  0.55511311  0.51572629     0.16600
C1327       C  0.31326785  0.59038028  0.52415697     0.26000
C1328       C  0.29453907  0.59760164  0.53803711    -0.40300
C1329       C  0.25649349  0.56986920  0.54246562     0.32900
C1330       C  0.23885653  0.53452662  0.53423593     0.14600
F1331       F  0.31426501  0.54890364  0.50240066    -0.12700
F1332       F  0.23647604  0.57685500  0.55495866    -0.13200
F1333       F  0.34950902  0.61687723  0.51922163    -0.15500
F1334       F  0.20308685  0.50776306  0.53962126    -0.14000
F1335       F  0.29845331  0.98214998  0.51754300    -0.14000
F1336       F  0.14865963  0.91760416  0.49116213    -0.15500
C1337       C  0.47003196  0.71211959  0.52579565     0.14600
C1338       C  0.48583430  0.75053616  0.52167102     0.01600
C1339       C  0.46456194  0.76864003  0.52580746     0.16600
C1340       C  0.42802376  0.74857479  0.53352868     0.26000
C1341       C  0.41316318  0.71079180  0.53810113    -0.40400
C1342       C  0.43425371  0.69262618  0.53426404     0.33000
C1343       C  0.02403840  0.77063458  0.51325730     0.01600
F1344       F  0.98123307  0.80643188  0.52448305    -0.12700
F1345       F  0.42034222  0.65615373  0.53889846    -0.13200
C1346       C  0.02858396  0.79362713  0.49858399     0.16600
C1347       C  0.06392432  0.81201380  0.48964717     0.26000
C1348       C  0.09461880  0.80553017  0.49422149    -0.40300
C1349       C  0.09075331  0.78405771  0.50940505     0.32900
C1350       C  0.05609917  0.76720930  0.51890957     0.14600
F1351       F  0.99843682  0.79746492  0.49244980    -0.12700
F1352       F  0.12016967  0.77868993  0.51505704    -0.13200
F1353       F  0.06798119  0.83616141  0.47647330    -0.15500
F1354       F  0.05405955  0.74759595  0.53372428    -0.14000
F1355       F  0.48906631  0.69335979  0.52153314    -0.14000
F1356       F  0.40763037  0.76633397  0.53709497    -0.15500
C1357       C  0.83819248  0.17265795  0.53907679     0.47400
H1358       H  0.83935937  0.17344140  0.52440123    -0.01600
C1359       C  0.83627704  0.17177704  0.57353713     0.47500
H1360       H  0.83548480  0.17126432  0.58823316    -0.01600
C1361       C  0.87857476  0.19217239  0.54814961    -0.15300
C1362       C  0.81758799  0.19273490  0.54694573    -0.15100
C1363       C  0.81675983  0.13264132  0.54684761    -0.15400
C1364       C  0.87743416  0.19193930  0.56625715    -0.15400
C1365       C  0.81620189  0.19170713  0.56512714    -0.15000
C1366       C  0.81664140  0.13262167  0.56502958    -0.15300
C1367       C  0.67646823  0.34717215  0.45729802     0.47400
H1368       H  0.67839957  0.34903355  0.44266336    -0.01600
C1369       C  0.67390874  0.34312200  0.49168332     0.47500
H1370       H  0.67355628  0.34210997  0.50634634    -0.01600
C1371       C  0.69705700  0.32726456  0.46502791    -0.15300
C1372       C  0.69450866  0.38552184  0.46665626    -0.15100
C1373       C  0.63484331  0.32485272  0.46431009    -0.15400
C1374       C  0.69560459  0.32474515  0.48307764    -0.15400
C1375       C  0.69373282  0.38366300  0.48469722    -0.15000
C1376       C  0.63322009  0.32354641  0.48263836    -0.15300
O1377       O  0.59724500  0.25196892  0.69915488    -0.78900
O1378       O  0.69452565  0.38235702  0.64831379    -0.63600
O1379       O  0.66494758  0.30899369  0.68470193    -1.10200
C1380       C  0.63301557  0.39221667  0.71508158     1.07900
O1381       O  0.72693344  0.42675680  0.66806775    -0.76800
O1382       O  0.72363854  0.41933354  0.70326898    -0.64400
Ni1383     Ni  0.63067321  0.25719259  0.67978534     1.34900
C1384       C  0.72491352  0.39386540  0.71227056     0.86700
O1385       O  0.69820524  0.31872961  0.65149966    -0.77400
O1386       O  0.66216698  0.25860540  0.66017993    -0.87700
C1387       C  0.71865624  0.41644662  0.65201883     0.86300
O1388       O  0.59497527  0.26173758  0.66428612    -0.65900
O1389       O  0.65358868  0.41667614  0.70353247    -0.85100
C1390       C  0.59912020  0.28741441  0.65369810     0.87100
C1391       C  0.68798438  0.28387935  0.65031244     1.08700
H1392       H  0.63412600  0.36323265  0.67652973     0.40500
O1393       O  0.65871110  0.36737926  0.68133074    -1.07800
O1394       O  0.69815935  0.35952724  0.71151290    -0.64500
Ni1395     Ni  0.64710438  0.33347019  0.70054084     1.26300
O1396       O  0.62995574  0.31931649  0.65315244    -0.64700
O1397       O  0.62934720  0.35941100  0.71586608    -0.77000
C1398       C  0.60843363  0.26214580  0.71502191     0.86500
O1399       O  0.63382547  0.29606144  0.71837509    -0.64200
Ni1400     Ni  0.68924795  0.41988264  0.68568579     1.27400
Ni1401     Ni  0.67885571  0.34411891  0.66594789     1.26100
H1402       H  0.68856497  0.31093573  0.68941390     0.41000
C1403       C  0.98355805  0.00783766  0.79160800     0.47400
H1404       H  0.98426421  0.00806225  0.77691050    -0.01600
C1405       C  0.98174150  0.00723206  0.82609312     0.47500
H1406       H  0.98099020  0.00694227  0.84077973    -0.01600
C1407       C  0.01238786  0.49283988  0.80035467    -0.15300
C1408       C  0.00079755  0.04714301  0.79991202    -0.15100
C1409       C  0.94894307  0.48871631  0.79928860    -0.15400
C1410       C  0.01120134  0.49154287  0.81845077    -0.15400
C1411       C  0.00003469  0.04702790  0.81808833    -0.15000
C1412       C  0.94751365  0.48739613  0.81747446    -0.15300
C1413       C  0.65156442  0.33831181  0.87501689     0.47400
H1414       H  0.65131300  0.33881006  0.86032751    -0.01600
C1415       C  0.65218138  0.33717387  0.90950501     0.47500
H1416       H  0.65246974  0.33678479  0.92420909    -0.01600
C1417       C  0.63097223  0.29827277  0.88286522    -0.15300
C1418       C  0.69284470  0.35781908  0.88332574    -0.15100
C1419       C  0.63126668  0.35816764  0.88359505    -0.15400
C1420       C  0.63174040  0.29789823  0.90103157    -0.15400
C1421       C  0.69281969  0.35745411  0.90147715    -0.15000
C1422       C  0.63152594  0.35714044  0.90176031    -0.15300
C1423       C  0.85450917  0.17176028  0.15959304     0.47400
H1424       H  0.85461989  0.17256100  0.17428114    -0.01600
C1425       C  0.85438457  0.17043843  0.12511591     0.47500
H1426       H  0.85460066  0.16997374  0.11041790    -0.01600
C1427       C  0.87386063  0.15036274  0.15179406    -0.15300
C1428       C  0.81348898  0.15258464  0.15121754    -0.15100
C1429       C  0.87540903  0.21099784  0.15114085    -0.15400
C1430       C  0.87390238  0.15010096  0.13363168    -0.15400
C1431       C  0.81347454  0.15145475  0.13300945    -0.15000
C1432       C  0.87552992  0.21018746  0.13304840    -0.15300
C1433       C  0.51979763  0.50005612  0.20747925     0.47400
H1434       H  0.52017503  0.50070364  0.19282115    -0.01600
C1435       C  0.51907191  0.50066454  0.24192876     0.47500
H1436       H  0.51909184  0.50143766  0.25660972    -0.01600
C1437       C  0.56020610  0.02225748  0.21594482    -0.15300
C1438       C  0.49697312  0.01883190  0.21622236    -0.15100
C1439       C  0.49975957  0.46009013  0.21568876    -0.15400
C1440       C  0.56121647  0.02283320  0.23408299    -0.15400
C1441       C  0.49812634  0.01913019  0.23426798    -0.15000
C1442       C  0.50141629  0.46091480  0.23399157    -0.15300
O1443       O  0.78073969  0.08166366  0.36565389    -0.78900
O1444       O  0.88028904  0.21225648  0.31528898    -0.63600
O1445       O  0.84953099  0.14050353  0.35246685    -1.10200
C1446       C  0.81255168  0.22312678  0.37930569     1.07900
O1447       O  0.91218744  0.25612329  0.33530841    -0.76800
O1448       O  0.90533791  0.25002236  0.37080979    -0.64400
Ni1449     Ni  0.81849445  0.08805573  0.34815965     1.34900
C1450       C  0.90417962  0.22425964  0.38055258     0.86700
O1451       O  0.88455365  0.14931759  0.31962797    -0.77400
O1452       O  0.85401251  0.09037980  0.33044462    -0.87700
C1453       C  0.90463043  0.24623492  0.31916160     0.86300
O1454       O  0.78476098  0.08957283  0.33052842    -0.65900
O1455       O  0.83557905  0.24803224  0.36847301    -0.85100
C1456       C  0.78655270  0.11477858  0.32022762     0.87100
C1457       C  0.87771040  0.11539925  0.31985351     1.08700
H1458       H  0.81877749  0.19435141  0.34202299     0.40500
O1459       O  0.84256816  0.19814561  0.34751303    -1.07800
O1460       O  0.87718608  0.19021185  0.37945519    -0.64500
Ni1461     Ni  0.82840590  0.16433224  0.36674228     1.26300
O1462       O  0.81521971  0.14824242  0.32033243    -0.64700
O1463       O  0.80790938  0.18998966  0.38034237    -0.77000
C1464       C  0.78832588  0.09337780  0.38154603     0.86500
O1465       O  0.81270193  0.12753028  0.38485237    -0.64200
Ni1466     Ni  0.87320398  0.25056643  0.35189824     1.27400
Ni1467     Ni  0.86395832  0.17462250  0.33323483     1.26100
H1468       H  0.87333878  0.14409979  0.35793219     0.41000
O1469       O  0.53687598  0.09507990  0.00247754    -0.78900
O1470       O  0.98975423  0.45833791  0.05135673    -0.63600
O1471       O  0.53531322  0.03112537  0.01593139    -1.10200
C1472       C  0.91677889  0.46310333  0.98699851     1.07900
O1473       O  0.96917220  0.41374973  0.03109861    -0.76800
O1474       O  0.97249136  0.42479131  0.99606011    -0.64400
Ni1475     Ni  0.55793319  0.08258798  0.02268648     1.34900
C1476       C  0.50380106  0.45008923  0.98693819     0.86700
O1477       O  0.55890784  0.01386852  0.04759927    -0.77400
O1478       O  0.58194517  0.07568811  0.04364322    -0.87700
C1479       C  0.97618368  0.42407065  0.04719532     0.86300
O1480       O  0.51513015  0.07728357  0.03581482    -0.65900
O1481       O  0.91038260  0.43658608  0.99769010    -0.85100
C1482       C  0.99686741  0.05610585  0.04739326     0.87100
C1483       C  0.58221384  0.04821174  0.05148131     1.08700
H1484       H  0.95253642  0.48629357  0.02522664     0.40500
O1485       O  0.97030697  0.47975829  0.01972874    -1.07800
O1486       O  0.51400114  0.48472741  0.98837076    -0.64500
Ni1487     Ni  0.98760825  0.01138906  0.00055985     1.26300
O1488       O  0.99336900  0.02353485  0.04781049    -0.64700
O1489       O  0.94896817  0.49407062  0.98631111    -0.77000
C1490       C  0.53265743  0.08341719  0.98660251     0.86500
O1491       O  0.51678342  0.04852675  0.98309303    -0.64200
Ni1492     Ni  0.94113695  0.42731409  0.01444633     1.27400
Ni1493     Ni  0.51459250  0.49712929  0.03430834     1.26100
H1494       H  0.55542827  0.02791754  0.01045027     0.41000
C1495       C  0.63277465  0.08091043  0.27045167     0.14600
C1496       C  0.66151878  0.07064308  0.26871920     0.01600
C1497       C  0.65834384  0.04624674  0.25490347     0.16600
C1498       C  0.62622368  0.03126163  0.24339104     0.26000
C1499       C  0.59710016  0.04106757  0.24526373    -0.40400
C1500       C  0.60081975  0.06619935  0.25883644     0.33000
C1501       C  0.69299620  0.08260725  0.28214788     0.01600
F1502       F  0.68593915  0.03613340  0.25288639    -0.12700
F1503       F  0.57307244  0.07594570  0.26111152    -0.13200
C1504       C  0.69571271  0.05533592  0.29228258     0.16600
C1505       C  0.72570607  0.06578759  0.30468919     0.26000
C1506       C  0.75384724  0.10407699  0.30736910    -0.40300
C1507       C  0.75047971  0.13149597  0.29738522     0.32900
C1508       C  0.72025989  0.12079207  0.28492988     0.14600
F1509       F  0.66893935  0.01831289  0.29023481    -0.12700
F1510       F  0.77630969  0.16869676  0.29962195    -0.13200
F1511       F  0.72727429  0.03803454  0.31383658    -0.15500
F1512       F  0.71804026  0.14768390  0.27532980    -0.14000
F1513       F  0.63471124  0.10378716  0.28389907    -0.14000
F1514       F  0.62253242  0.00549243  0.23111081    -0.15500
C1515       C  0.92721267  0.29609114  0.27471056     0.14600
C1516       C  0.95501909  0.33288760  0.27976853     0.01600
C1517       C  0.96907574  0.34004759  0.29723986     0.16600
C1518       C  0.95390010  0.31152639  0.30980799     0.26000
C1519       C  0.92429347  0.27487088  0.30514598    -0.40400
C1520       C  0.91195686  0.26721369  0.28727957     0.33000
C1521       C  0.96606263  0.36485279  0.26764472     0.01600
F1522       F  0.49661183  0.37567478  0.30201120    -0.12700
F1523       F  0.88373843  0.23238087  0.28209638    -0.13200
C1524       C  0.95580603  0.39207705  0.27191134     0.16600
C1525       C  0.96673786  0.42319246  0.26109103     0.26000
C1526       C  0.98804590  0.42780436  0.24559792    -0.40300
C1527       C  0.50247222  0.40134282  0.24185468     0.32900
C1528       C  0.98772422  0.36929569  0.25236523     0.14600
F1529       F  0.93489516  0.38839340  0.28665068    -0.12700
F1530       F  0.52678919  0.40706141  0.22821530    -0.13200
F1531       F  0.95601173  0.44854165  0.26586348    -0.15500
F1532       F  0.99874184  0.34372210  0.24822900    -0.14000
F1533       F  0.91317576  0.28863823  0.25785179    -0.14000
F1534       F  0.96741688  0.32042977  0.32670762    -0.15500
C1535       C  0.97960458  0.08739549  0.25900748     0.14600
C1536       C  0.94406904  0.06295471  0.26714687     0.01600
C1537       C  0.92472993  0.02438952  0.26285074     0.16600
C1538       C  0.94201029  0.01012173  0.25161358     0.26000
C1539       C  0.97823723  0.03432824  0.24420454    -0.40400
C1540       C  0.99622812  0.07315853  0.24732388     0.33000
C1541       C  0.92807973  0.07723309  0.28072649     0.01600
F1542       F  0.88925068  0.00055519  0.26965093    -0.12700
F1543       F  0.53177828  0.09788611  0.23938926    -0.13200
C1544       C  0.92161675  0.10729058  0.27703015     0.16600
C1545       C  0.90672028  0.12076880  0.29000081     0.26000
C1546       C  0.89721963  0.10381107  0.30678141    -0.40300
C1547       C  0.90412150  0.07393114  0.31049061     0.32900
C1548       C  0.91961844  0.06094436  0.29761244     0.14600
F1549       F  0.92849196  0.12277094  0.26065966    -0.12700
F1550       F  0.89621248  0.05743283  0.32664647    -0.13200
F1551       F  0.90003861  0.14933525  0.28585107    -0.15500
F1552       F  0.92666987  0.03256367  0.30169027    -0.14000
F1553       F  0.99893824  0.12474029  0.26291193    -0.14000
F1554       F  0.92195162  0.47654666  0.24814816    -0.15500
C1555       C  0.94691307  0.28566238  0.10265466     0.14600
C1556       C  0.92868951  0.30712189  0.09952883     0.01600
C1557       C  0.89331589  0.29709157  0.10790626     0.16600
C1558       C  0.87624992  0.26584869  0.11904741     0.26000
C1559       C  0.89417186  0.24410724  0.12187033    -0.40400
C1560       C  0.92956840  0.25417249  0.11363643     0.33000
C1561       C  0.94502597  0.33832644  0.08663459     0.01600
F1562       F  0.87455122  0.31668761  0.10473577    -0.12700
F1563       F  0.94728919  0.23344923  0.11624467    -0.13200
C1564       C  0.95001833  0.33118526  0.06896853     0.16600
C1565       C  0.96181197  0.35949629  0.05631525     0.26000
C1566       C  0.96854342  0.39559895  0.06103980    -0.40300
C1567       C  0.96536408  0.40318769  0.07895495     0.32900
C1568       C  0.95364005  0.37475298  0.09160854     0.14600
F1569       F  0.94175734  0.29620643  0.06377173    -0.12700
F1570       F  0.97207115  0.43765556  0.08418163    -0.13200
F1571       F  0.47223893  0.35263560  0.03961394    -0.15500
F1572       F  0.95009581  0.38262450  0.10870923    -0.14000
F1573       F  0.98146660  0.29521640  0.09502412    -0.14000
F1574       F  0.84161132  0.25608894  0.12661942    -0.15500
C1575       C  0.73880356  0.13576694  0.09752582     0.14600
C1576       C  0.70958786  0.09858412  0.10080056     0.01600
C1577       C  0.71533659  0.07800911  0.11416973     0.16600
C1578       C  0.74947063  0.09481991  0.12445281     0.26000
C1579       C  0.77802082  0.13261102  0.12164230    -0.40400
C1580       C  0.77274526  0.15262148  0.10784033     0.33000
C1581       C  0.67346688  0.08167444  0.09001883     0.01600
F1582       F  0.68766543  0.04189063  0.11740787    -0.12700
F1583       F  0.80001480  0.18886498  0.10461725    -0.13200
C1584       C  0.66459304  0.05149992  0.07846837     0.16600
C1585       C  0.63357558  0.03929025  0.06640209     0.26000
C1586       C  0.61125704  0.05726786  0.06570217    -0.40300
C1587       C  0.61864822  0.08586503  0.07803192     0.32900
C1588       C  0.64946501  0.09787921  0.09014111     0.14600
F1589       F  0.68729771  0.03531530  0.07819615    -0.12700
F1590       F  0.59620883  0.10237322  0.07823327    -0.13200
F1591       F  0.62695902  0.01161615  0.05464118    -0.15500
F1592       F  0.65649787  0.12592568  0.10176327    -0.14000
F1593       F  0.73447340  0.15567997  0.08420945    -0.14000
F1594       F  0.75485671  0.07407121  0.13698601    -0.15500
C1595       C  0.94703954  0.12921294  0.11227732     0.14600
C1596       C  0.92349952  0.10173109  0.09976489     0.01600
C1597       C  0.88346971  0.08885419  0.09899325     0.16600
C1598       C  0.86719299  0.10404128  0.11034389     0.26000
C1599       C  0.89078095  0.13204032  0.12267716    -0.40400
C1600       C  0.93071910  0.14417872  0.12376425     0.33000
C1601       C  0.94121893  0.08915415  0.08637484     0.01600
F1602       F  0.86050003  0.06250410  0.08683336    -0.12700
F1603       F  0.95411602  0.17168963  0.13537080    -0.13200
C1604       C  0.94309787  0.05617210  0.08874168     0.16600
C1605       C  0.96035855  0.04475165  0.07591304     0.26000
C1606       C  0.97592258  0.06628866  0.06047670    -0.40300
C1607       C  0.97332460  0.09921147  0.05818275     0.32900
C1608       C  0.95615195  0.11042748  0.07103530     0.14600
F1609       F  0.92874296  0.03540371  0.10360806    -0.12700
F1610       F  0.47648633  0.11111985  0.04124239    -0.13200
F1611       F  0.96284691  0.01332495  0.07891711    -0.15500
F1612       F  0.95418434  0.14228831  0.06855904    -0.14000
F1613       F  0.98596826  0.14238241  0.11291157    -0.14000
F1614       F  0.82842121  0.09149119  0.10929235    -0.15500
C1615       C  0.88917149  0.07127849  0.16835837     0.14600
C1616       C  0.91996654  0.09010651  0.18059259     0.01600
C1617       C  0.93318185  0.12833812  0.18441926     0.16600
C1618       C  0.91745919  0.14777523  0.17544024     0.26000
C1619       C  0.88781574  0.12918791  0.16274066    -0.40400
C1620       C  0.87288114  0.09048166  0.15975638     0.33000
C1621       C  0.93927099  0.07037792  0.18875737     0.01600
F1622       F  0.96163941  0.14698475  0.19673556    -0.12700
F1623       F  0.84278677  0.07132062  0.14824556    -0.13200
C1624       C  0.97991329  0.08602514  0.18771787     0.16600
C1625       C  0.99838012  0.06814496  0.19572399     0.26000
C1626       C  0.97656586  0.03413184  0.20472968    -0.40300
C1627       C  0.93587124  0.01728873  0.20489912     0.32900
C1628       C  0.91737516  0.03548393  0.19725354     0.14600
F1629       F  0.00176513  0.11860131  0.17884697    -0.12700
F1630       F  0.91406298  0.98322769  0.21256589    -0.13200
F1631       F  0.53935695  0.08582787  0.19648765    -0.15500
F1632       F  0.87817626  0.01945571  0.19860675    -0.14000
F1633       F  0.87586447  0.03462266  0.16413345    -0.14000
F1634       F  0.93236572  0.18510756  0.17858451    -0.15500
C1635       C  0.73641891  0.09451187  0.18470699     0.14600
C1636       C  0.70711817  0.10311549  0.18043762     0.01600
C1637       C  0.71414057  0.13033625  0.16753531     0.16600
C1638       C  0.74927823  0.14746745  0.15843895     0.26000
C1639       C  0.77782501  0.13739446  0.16202982    -0.40400
C1640       C  0.77160977  0.11165337  0.17561239     0.33000
C1641       C  0.66869929  0.08271902  0.18893822     0.01600
F1642       F  0.68642454  0.13942767  0.16336537    -0.12700
F1643       F  0.79889593  0.10186240  0.17955554    -0.13200
C1644       C  0.65515028  0.10210868  0.19935802     0.16600
C1645       C  0.61885183  0.08259928  0.20741712     0.26000
C1646       C  0.59572676  0.04337708  0.20528484    -0.40300
C1647       C  0.60916892  0.02408697  0.19476058     0.32900
C1648       C  0.64532259  0.04362821  0.18657752     0.14600
F1649       F  0.67769690  0.13970058  0.20222167    -0.12700
F1650       F  0.58880750  0.98604366  0.19354813    -0.13200
F1651       F  0.60676721  0.10178484  0.21780092    -0.15500
F1652       F  0.65784341  0.02432107  0.17654541    -0.14000
F1653       F  0.73072698  0.06922043  0.19757882    -0.14000
F1654       F  0.75527966  0.17369388  0.14602433    -0.15500
C1655       C  0.97233425  0.38542525  0.18017858     0.14600
C1656       C  0.94003905  0.35427604  0.18772181     0.01600
C1657       C  0.92400546  0.36005621  0.20311777     0.16600
C1658       C  0.94070970  0.39570461  0.21102092     0.26000
C1659       C  0.97619015  0.42564982  0.20486621    -0.40400
C1660       C  0.99036761  0.42056916  0.18868625     0.33000
C1661       C  0.92296942  0.31626889  0.17928980     0.01600
F1662       F  0.89284022  0.33100614  0.21092395    -0.12700
F1663       F  0.52227943  0.44730232  0.18103688    -0.13200
C1664       C  0.94714427  0.30177869  0.17415465     0.16600
C1665       C  0.93167994  0.26752829  0.16497656     0.26000
C1666       C  0.89161884  0.24625684  0.16156456    -0.40300
C1667       C  0.86712520  0.25962977  0.16729293     0.32900
C1668       C  0.88266067  0.29459758  0.17581673     0.14600
F1669       F  0.98577256  0.32069818  0.17810578    -0.12700
F1670       F  0.82825747  0.23942779  0.16400345    -0.13200
F1671       F  0.95583593  0.25525034  0.15924928    -0.15500
F1672       F  0.85840075  0.30781804  0.18003849    -0.14000
F1673       F  0.98653682  0.38188959  0.16446181    -0.14000
F1674       F  0.92198397  0.40079956  0.22476220    -0.15500
C1675       C  0.76771951  0.37372859  0.93670090     0.14600
C1676       C  0.79065100  0.41325678  0.93695477     0.01600
C1677       C  0.78209906  0.43436303  0.92490314     0.16600
C1678       C  0.75103444  0.41616305  0.91286868     0.26000
C1679       C  0.72793251  0.37671758  0.91288389    -0.40400
C1680       C  0.73631204  0.35571086  0.92494816     0.33000
C1681       C  0.82284320  0.43183759  0.95008039     0.01600
F1682       F  0.80277835  0.47255004  0.92527843    -0.12700
F1683       F  0.71396797  0.31764000  0.92534091    -0.13200
C1684       C  0.86138301  0.45567601  0.94467858     0.16600
C1685       C  0.89220465  0.46813116  0.95692773     0.26000
C1686       C  0.88482293  0.45652653  0.97466841    -0.40300
C1687       C  0.84608026  0.43506504  0.98023576     0.32900
C1688       C  0.81543352  0.42309394  0.96809597     0.14600
F1689       F  0.86941058  0.46489394  0.92738277    -0.12700
F1690       F  0.83787496  0.42487182  0.99743497    -0.13200
F1691       F  0.92927512  0.48918396  0.95118141    -0.15500
F1692       F  0.77839379  0.40182666  0.97385909    -0.14000
F1693       F  0.77578382  0.35249712  0.94788327    -0.14000
F1694       F  0.74228146  0.43708989  0.90181863    -0.15500
C1695       C  0.56983208  0.22556913  0.93509256     0.14600
C1696       C  0.58187696  0.19877713  0.93336727     0.01600
C1697       C  0.60977468  0.20406710  0.92071021     0.16600
C1698       C  0.62589544  0.23614039  0.91004626     0.26000
C1699       C  0.61416129  0.26323993  0.91190744    -0.40400
C1700       C  0.58590984  0.25759919  0.92447020     0.33000
C1701       C  0.56934911  0.16830946  0.94642748     0.01600
F1702       F  0.62274047  0.17909935  0.91933399    -0.12700
F1703       F  0.57379084  0.28308520  0.92642004    -0.13200
C1704       C  0.54284187  0.13066351  0.94199296     0.16600
C1705       C  0.53100680  0.10247818  0.95487698     0.26000
C1706       C  0.54551812  0.11185527  0.97235858    -0.40300
C1707       C  0.57288156  0.14966325  0.97645723     0.32900
C1708       C  0.58447629  0.17744358  0.96365098     0.14600
F1709       F  0.52793911  0.12142285  0.92532365    -0.12700
F1710       F  0.58909180  0.15995076  0.99287617    -0.13200
F1711       F  0.00850302  0.06400164  0.94921149    -0.15500
F1712       F  0.61091467  0.21352531  0.96804736    -0.14000
F1713       F  0.54310539  0.22102824  0.94738769    -0.14000
F1714       F  0.65416368  0.24154870  0.89847725    -0.15500
C1715       C  0.53784605  0.39052852  0.96269896     0.14600
C1716       C  0.55944362  0.41435480  0.94889802     0.01600
C1717       C  0.56356040  0.45033971  0.94771198     0.16600
C1718       C  0.54583848  0.46224135  0.96011532     0.26000
C1719       C  0.52408350  0.43840420  0.97409335    -0.40400
C1720       C  0.52059507  0.40242538  0.97525378     0.33000
C1721       C  0.57807266  0.40147426  0.93598069     0.01600
F1722       F  0.58404667  0.47360697  0.93429882    -0.12700
F1723       F  0.50076176  0.37865238  0.98862648    -0.13200
C1724       C  0.55518202  0.37192314  0.92418242     0.16600
C1725       C  0.57263430  0.35783735  0.91283573     0.26000
C1726       C  0.61312228  0.37286387  0.91330547    -0.40300
C1727       C  0.63595477  0.40213015  0.92523276     0.32900
C1728       C  0.61859740  0.41677565  0.93630209     0.14600
F1729       F  0.51590420  0.35648946  0.92383866    -0.12700
F1730       F  0.67506657  0.41663004  0.92608456    -0.13200
F1731       F  0.54995466  0.32859862  0.90186526    -0.15500
F1732       F  0.64114808  0.44512333  0.94772081    -0.14000
F1733       F  0.53385007  0.35572036  0.96411335    -0.14000
F1734       F  0.54913478  0.49665064  0.95810286    -0.15500
C1735       C  0.52290690  0.42323544  0.84824545     0.14600
C1736       C  0.56283791  0.43570027  0.84648760     0.01600
C1737       C  0.58579430  0.46810603  0.83643985     0.16600
C1738       C  0.56904963  0.48717679  0.82803294     0.26000
C1739       C  0.52895869  0.47405330  0.82935544    -0.40400
C1740       C  0.00545845  0.44020124  0.83832613     0.33000
C1741       C  0.58088434  0.41574525  0.85554081     0.01600
F1742       F  0.62437262  0.48082673  0.83444818    -0.12700
F1743       F  0.96631128  0.42559648  0.83857020    -0.13200
C1744       C  0.56827267  0.37762088  0.85185402     0.16600
C1745       C  0.58518133  0.35901373  0.86068486     0.26000
C1746       C  0.61496197  0.37823552  0.87329519    -0.40300
C1747       C  0.62826135  0.41657313  0.87658516     0.32900
C1748       C  0.61118468  0.43501698  0.86792834     0.14600
F1749       F  0.53983403  0.35853738  0.83958867    -0.12700
F1750       F  0.65808117  0.43632026  0.88814520    -0.13200
F1751       F  0.57175008  0.32198313  0.85729358    -0.15500
F1752       F  0.62380674  0.47166826  0.87189502    -0.14000
F1753       F  0.99858056  0.38902719  0.85587165    -0.14000
F1754       F  0.58571742  0.02047284  0.82053601    -0.15500
C1755       C  0.56665246  0.12967521  0.84916432     0.14600
C1756       C  0.55234642  0.15463426  0.84642442     0.01600
C1757       C  0.51864982  0.14279379  0.83595104     0.16600
C1758       C  0.00123698  0.10683928  0.82647973     0.26000
C1759       C  0.51560411  0.08288366  0.83014977    -0.40400
C1760       C  0.54826564  0.09399479  0.84115641     0.33000
C1761       C  0.57207839  0.19265540  0.85475259     0.01600
F1762       F  0.00570627  0.16602645  0.83168348    -0.12700
F1763       F  0.56324371  0.07084202  0.84357976    -0.13200
C1764       C  0.61152932  0.21833927  0.85144483     0.16600
C1765       C  0.63040618  0.25347987  0.86001317     0.26000
C1766       C  0.61010834  0.26343912  0.87197249    -0.40300
C1767       C  0.57031414  0.23842694  0.87469334     0.32900
C1768       C  0.55158087  0.20325944  0.86630279     0.14600
F1769       F  0.63180739  0.20924384  0.84000719    -0.12700
F1770       F  0.54972920  0.24782790  0.88579214    -0.13200
F1771       F  0.66890596  0.27701907  0.85728470    -0.15500
F1772       F  0.51369088  0.17896776  0.86996006    -0.14000
F1773       F  0.59850725  0.13991704  0.85958210    -0.14000
F1774       F  0.97050187  0.09764314  0.81545918    -0.15500
C1775       C  0.77424248  0.42329201  0.85292984     0.14600
C1776       C  0.80067129  0.40982766  0.85461083     0.01600
C1777       C  0.79036575  0.37797946  0.86518172     0.16600
C1778       C  0.75490911  0.36060194  0.87415482     0.26000
C1779       C  0.72906601  0.37467803  0.87276430    -0.40400
C1780       C  0.73877963  0.40585536  0.86192575     0.33000
C1781       C  0.83903803  0.42932260  0.84555590     0.01600
F1782       F  0.81509149  0.36426256  0.86721790    -0.12700
F1783       F  0.71450808  0.42022536  0.86054566    -0.13200
C1784       C  0.86461066  0.46809775  0.84829490     0.16600
C1785       C  0.90026191  0.48668752  0.83950885     0.26000
C1786       C  0.91087937  0.46703299  0.82766119    -0.40300
C1787       C  0.88586875  0.42818768  0.82517586     0.32900
C1788       C  0.85030547  0.40948860  0.83403538     0.14600
F1789       F  0.85510946  0.48801249  0.85955704    -0.12700
F1790       F  0.89599016  0.40833108  0.81417938    -0.13200
F1791       F  0.91740758  0.02297949  0.84121398    -0.15500
F1792       F  0.82640433  0.37216268  0.83097950    -0.14000
F1793       F  0.78272281  0.45330232  0.84248374    -0.14000
F1794       F  0.74576365  0.32997734  0.88427113    -0.15500
C1795       C  0.85483642  0.46942348  0.77653984     0.14600
C1796       C  0.85225492  0.44530619  0.76273527     0.01600
C1797       C  0.88123941  0.43545533  0.76102281     0.16600
C1798       C  0.91232118  0.44919965  0.77307239     0.26000
C1799       C  0.91460824  0.47260687  0.78719060    -0.40400
C1800       C  0.88580141  0.48298023  0.78871797     0.33000
C1801       C  0.82019509  0.43151255  0.74963278     0.01600
F1802       F  0.87983096  0.41319618  0.74739484    -0.12700
F1803       F  0.88869135  0.50770859  0.80141868    -0.13200
C1804       C  0.82229948  0.45440067  0.73546567     0.16600
C1805       C  0.79212827  0.44156122  0.72295610     0.26000
C1806       C  0.75876955  0.40554002  0.72452081    -0.40300
C1807       C  0.75744879  0.38223661  0.73857227     0.32900
C1808       C  0.78799443  0.39519237  0.75098362     0.14600
F1809       F  0.85375789  0.48928562  0.73373983    -0.12700
F1810       F  0.72624906  0.34733852  0.74065057    -0.13200
F1811       F  0.79579006  0.46458403  0.70929785    -0.15500
F1812       F  0.78592675  0.37253369  0.76452813    -0.14000
F1813       F  0.82777126  0.48037147  0.77798542    -0.14000
F1814       F  0.92452011  0.92559009  0.77514671    -0.15500
C1815       C  0.54921816  0.16866738  0.73807106     0.14600
C1816       C  0.56117553  0.17786415  0.75578469     0.01600
C1817       C  0.58762123  0.21551164  0.76032083     0.16600
C1818       C  0.60231374  0.24336944  0.74724594     0.26000
C1819       C  0.59085984  0.23393984  0.72937453    -0.40400
C1820       C  0.56353105  0.19622642  0.72507963     0.33000
C1821       C  0.54635269  0.14747582  0.76913622     0.01600
F1822       F  0.59916553  0.22532467  0.77740264    -0.12700
F1823       F  0.55102268  0.18539317  0.70817359    -0.13200
C1824       C  0.57213428  0.14055783  0.77927562     0.16600
C1825       C  0.55780665  0.10871259  0.79005971     0.26000
C1826       C  0.51771923  0.08308441  0.79051993    -0.40300
C1827       C  0.99106120  0.08671029  0.77756976     0.32900
C1828       C  0.50608371  0.12265666  0.77041927     0.14600
F1829       F  0.61117921  0.16355752  0.77807997    -0.12700
F1830       F  0.95250988  0.06115656  0.77704854    -0.13200
F1831       F  0.58307041  0.10214460  0.79955099    -0.15500
F1832       F  0.97995397  0.12307914  0.75631349    -0.14000
F1833       F  0.52450526  0.13244473  0.73315440    -0.14000
F1834       F  0.62798622  0.27935969  0.75210613    -0.15500
C1835       C  0.58203098  0.44035498  0.73538353     0.14600
C1836       C  0.57834920  0.42907405  0.75315185     0.01600
C1837       C  0.59073958  0.40354773  0.75819114     0.16600
C1838       C  0.60752126  0.39050863  0.74576631     0.26000
C1839       C  0.61252494  0.40308277  0.72812810    -0.40400
C1840       C  0.59918782  0.42782998  0.72308802     0.33000
C1841       C  0.56251151  0.44495654  0.76627954     0.01600
F1842       F  0.58795850  0.39233697  0.77527131    -0.12700
F1843       F  0.60242211  0.43975845  0.70611202    -0.13200
C1844       C  0.53055641  0.42130658  0.77687581     0.16600
C1845       C  0.51452388  0.43667360  0.78839113     0.26000
C1846       C  0.52986358  0.47579707  0.78932557    -0.40300
C1847       C  0.56168486  0.49941987  0.77883382     0.32900
C1848       C  0.57829481  0.48423342  0.76763780     0.14600
F1849       F  0.51378632  0.38332458  0.77551418    -0.12700
F1850       F  0.57671964  0.53729807  0.77947689    -0.13200
F1851       F  0.97852881  0.41466459  0.79308473    -0.15500
F1852       F  0.60983528  0.50797077  0.75804427    -0.14000
F1853       F  0.56876832  0.46353149  0.72985041    -0.14000
F1854       F  0.62045601  0.36700045  0.75118681    -0.15500
C1855       C  0.76140555  0.27225458  0.39820724     0.14600
C1856       C  0.75657209  0.26053173  0.41593603     0.01600
C1857       C  0.76737767  0.23401855  0.42116301     0.16600
C1858       C  0.78407273  0.22055402  0.40903668     0.26000
C1859       C  0.79083630  0.23386220  0.39154678    -0.40400
C1860       C  0.77870355  0.25933868  0.38616909     0.33000
C1861       C  0.74195692  0.27730495  0.42906193     0.01600
F1862       F  0.76349752  0.22249111  0.43822549    -0.12700
F1863       F  0.78355456  0.27175355  0.36922518    -0.13200
C1864       C  0.70957211  0.25440726  0.43954412     0.16600
C1865       C  0.69551666  0.27063933  0.45158033     0.26000
C1866       C  0.71379849  0.30993022  0.45342971    -0.40300
C1867       C  0.74607926  0.33273541  0.44299316     0.32900
C1868       C  0.76027076  0.31663830  0.43102147     0.14600
F1869       F  0.69061154  0.21640429  0.43762215    -0.12700
F1870       F  0.76381022  0.37068608  0.44429556    -0.13200
F1871       F  0.66286835  0.24804809  0.46075140    -0.15500
F1872       F  0.79206748  0.33953913  0.42136105    -0.14000
F1873       F  0.74955111  0.29645969  0.39256221    -0.14000
F1874       F  0.79559177  0.19610365  0.41468204    -0.15500
C1875       C  0.48500482  0.22432743  0.40867133     0.14600
C1876       C  0.49848321  0.25790033  0.41839880     0.01600
C1877       C  0.98026958  0.28038219  0.41555268     0.16600
C1878       C  0.95006347  0.26925922  0.40318204     0.26000
C1879       C  0.93533475  0.23483280  0.39406953    -0.40400
C1880       C  0.95064515  0.21110655  0.39806127     0.33000
C1881       C  0.53421800  0.27300870  0.42954291     0.01600
F1882       F  0.99346029  0.31371036  0.42418186    -0.12700
F1883       F  0.93700973  0.17761416  0.38954399    -0.12000
C1884       C  0.56555886  0.30886597  0.42590791     0.16600
C1885       C  0.59835985  0.32515685  0.43690746     0.26000
C1886       C  0.60087961  0.30584437  0.45182813    -0.40300
C1887       C  0.57089322  0.26851656  0.45456727     0.32900
C1888       C  0.53743178  0.25254987  0.44375826     0.14600
F1889       F  0.56433128  0.32833728  0.41160906    -0.12700
F1890       F  0.57397340  0.24744639  0.46765997    -0.13200
F1891       F  0.62717454  0.36024545  0.43297113    -0.15500
F1892       F  0.00437667  0.21771487  0.44883749    -0.14000
F1893       F  0.50278760  0.20343731  0.41039650    -0.14000
F1894       F  0.93480134  0.29205842  0.40028390    -0.15500
C1895       C  0.69148141  0.46239307  0.44059127     0.14600
C1896       C  0.72980992  0.48265593  0.43452288     0.01600
C1897       C  0.75729499  0.47256871  0.44016258     0.16600
C1898       C  0.74630118  0.44205583  0.45146450     0.26000
C1899       C  0.70751797  0.42061659  0.45671909    -0.40400
C1900       C  0.68041176  0.43153779  0.45164471     0.33000
C1901       C  0.74081508  0.51296587  0.42153874     0.01600
F1902       F  0.79431386  0.49129972  0.43411026    -0.12700
F1903       F  0.64304589  0.41193711  0.45715761    -0.13200
C1904       C  0.76794406  0.04800340  0.42675907     0.16600
C1905       C  0.78212728  0.07575047  0.41372388     0.26000
C1906       C  0.76857713  0.06650131  0.39609199    -0.40300
C1907       C  0.73814449  0.02977157  0.39221160     0.32900
C1908       C  0.72409113  0.00225859  0.40525680     0.14600
F1909       F  0.78249653  0.05699096  0.44349989    -0.12700
F1910       F  0.72269692  0.01992086  0.37564581    -0.13200
F1911       F  0.81025417  0.11110475  0.41825831    -0.15500
F1912       F  0.69476607  0.46925551  0.40053046    -0.14000
F1913       F  0.66471296  0.47215655  0.43555385    -0.14000
F1914       F  0.77336778  0.43327038  0.45713681    -0.15500
C1915       C  0.71718552  0.22305901  0.62367785     0.14600
C1916       C  0.74184218  0.24854627  0.61105874     0.01600
C1917       C  0.74917057  0.28571978  0.61129407     0.16600
C1918       C  0.73166621  0.29729317  0.62393974     0.26000
C1919       C  0.70679117  0.27183477  0.63678366    -0.40400
C1920       C  0.70000220  0.23450219  0.63648414     0.33000
C1921       C  0.76138153  0.23648498  0.59827996     0.01600
F1922       F  0.77324566  0.31078574  0.59920780    -0.12700
F1923       F  0.67729935  0.20897214  0.64874087    -0.13200
C1924       C  0.74010673  0.21133418  0.58451966     0.16600
C1925       C  0.75794015  0.19699069  0.57354595     0.26000
C1926       C  0.79735281  0.20789885  0.57615503    -0.40300
C1927       C  0.81868326  0.23361791  0.58973914     0.32900
C1928       C  0.80086601  0.24792981  0.60066853     0.14600
F1929       F  0.70196000  0.20032736  0.58191702    -0.12700
F1930       F  0.85685529  0.24502620  0.59240693    -0.13200
F1931       F  0.73641660  0.17144563  0.56081933    -0.15500
F1932       F  0.82182145  0.27211001  0.61395412    -0.14000
F1933       F  0.71053814  0.18716862  0.62384930    -0.14000
F1934       F  0.73913286  0.33342318  0.62349515    -0.15500
C1935       C  0.96307054  0.26531805  0.59318581     0.14600
C1936       C  0.97228311  0.24249045  0.60369019     0.01600
C1937       C  0.95098065  0.20320999  0.60139711     0.16600
C1938       C  0.92090079  0.18699808  0.58881821     0.26000
C1939       C  0.91178293  0.20976214  0.57826264    -0.40400
C1940       C  0.93283131  0.24904535  0.58065076     0.33000
C1941       C  0.00447097  0.25928069  0.61686013     0.01600
F1942       F  0.95959800  0.18058181  0.61127665    -0.12700
F1943       F  0.92287035  0.27156174  0.57155176    -0.13200
C1944       C  0.99713796  0.25032438  0.63486772     0.16600
C1945       C  0.52804068  0.25549684  0.64567075     0.26000
C1946       C  0.56713314  0.27903056  0.64092035    -0.40300
C1947       C  0.57556527  0.29198809  0.62337190     0.32900
C1948       C  0.54567551  0.28037087  0.61069903     0.14600
F1949       F  0.96003413  0.22985324  0.64066372    -0.12700
F1950       F  0.61294919  0.31406765  0.61821766    -0.13200
F1951       F  0.51869881  0.24333196  0.66256628    -0.15500
F1952       F  0.55472086  0.29173425  0.59368639    -0.14000
F1953       F  0.98253423  0.30324689  0.59548465    -0.14000
F1954       F  0.90041168  0.14898102  0.58701020    -0.15500
C1955       C  0.79898409  0.04161323  0.58591519     0.14600
C1956       C  0.77105373  0.03625275  0.59856213     0.01600
C1957       C  0.75710775  0.06166714  0.59966761     0.16600
C1958       C  0.77167875  0.09275016  0.58854101     0.26000
C1959       C  0.80012357  0.09858621  0.57608831    -0.40400
C1960       C  0.81357117  0.07274370  0.57472791     0.33000
C1961       C  0.75894801  0.00629296  0.61175966     0.01600
F1962       F  0.72980222  0.05659059  0.61174374    -0.12700
F1963       F  0.84188853  0.07852204  0.56310235    -0.13200
C1964       C  0.77304518  0.01581319  0.62913668     0.16600
C1965       C  0.76932760  0.48057774  0.64197990     0.26000
C1966       C  0.73707245  0.44498566  0.63787910    -0.40300
C1967       C  0.72056125  0.43873269  0.62072184     0.32900
C1968       C  0.73397144  0.46831249  0.60855668     0.14600
F1969       F  0.79915997  0.05202301  0.63348315    -0.12700
F1970       F  0.69043511  0.40457643  0.61592825    -0.13200
F1971       F  0.78788778  0.48727918  0.65789025    -0.15500
F1972       F  0.71677048  0.46218399  0.59234089    -0.14000
F1973       F  0.81319390  0.01757898  0.58494674    -0.14000
F1974       F  0.75782143  0.11704083  0.58979716    -0.15500
C1975       C  0.79699917  0.26912426  0.53187282     0.14600
C1976       C  0.76927667  0.25084036  0.51829979     0.01600
C1977       C  0.76021275  0.21425873  0.51310258     0.16600
C1978       C  0.77683584  0.19562653  0.52203057     0.26000
C1979       C  0.80336357  0.21358203  0.53600776    -0.40400
C1980       C  0.81470695  0.25109723  0.54022895     0.33000
C1981       C  0.75001672  0.27000251  0.50966287     0.01600
F1982       F  0.73523120  0.19652899  0.49940242    -0.12700
F1983       F  0.84271654  0.27023719  0.55266123    -0.13200
C1984       C  0.77235018  0.30689060  0.50319724     0.16600
C1985       C  0.75431024  0.32501024  0.49516565     0.26000
C1986       C  0.71376894  0.30653525  0.49319405    -0.40300
C1987       C  0.69135003  0.26953125  0.49931640     0.32900
C1988       C  0.70921910  0.25164855  0.50779827     0.14600
F1989       F  0.81179499  0.32501878  0.50409764    -0.12700
F1990       F  0.65243299  0.24988415  0.49623218    -0.13200
F1991       F  0.77656823  0.36022318  0.48871335    -0.15500
F1992       F  0.68658899  0.21637948  0.51417373    -0.14000
F1993       F  0.80610082  0.30407346  0.53750723    -0.14000
F1994       F  0.76598856  0.15964812  0.51743096    -0.15500
C1995       C  0.76299055  0.46949889  0.51182182     0.14600
C1996       C  0.74243990  0.48934653  0.51263408     0.01600
C1997       C  0.70429192  0.47221255  0.50563634     0.16600
C1998       C  0.68735018  0.43636395  0.49789720     0.26000
C1999       C  0.70879631  0.41773470  0.49612091    -0.40400
C2000       C  0.74650316  0.43427674  0.50339315     0.33000
C2001       C  0.75967788  0.02643894  0.51872585     0.01600
F2002       F  0.68227591  0.98880076  0.50399548    -0.12700
F2003       F  0.76771087  0.41671423  0.50200391    -0.13200
C2004       C  0.79723882  0.05475605  0.51382111     0.16600
C2005       C  0.81539800  0.08985898  0.52245667     0.26000
C2006       C  0.79612231  0.09758770  0.53591290    -0.40300
C2007       C  0.75748413  0.07042270  0.53975462     0.32900
C2008       C  0.73993456  0.03496042  0.53168625     0.14600
F2009       F  0.81652529  0.04839945  0.50073410    -0.12700
F2010       F  0.73670914  0.07802240  0.55157166    -0.13200
F2011       F  0.85228486  0.11571607  0.51806486    -0.15500
F2012       F  0.70411552  0.00844470  0.53713772    -0.14000
F2013       F  0.79900671  0.48415279  0.51924818    -0.14000
F2014       F  0.65008994  0.42003433  0.49186511    -0.15500
C2015       C  0.96960961  0.20960027  0.52473275     0.14600
C2016       C  0.98708691  0.24840905  0.52117006     0.01600
C2017       C  0.96781272  0.26796848  0.52614961     0.16600
C2018       C  0.93128859  0.24892466  0.53388824     0.26000
C2019       C  0.91497960  0.21085088  0.53819604    -0.40400
C2020       C  0.93430237  0.19124451  0.53369562     0.33000
C2021       C  0.52431792  0.26843259  0.51049304     0.01600
F2022       F  0.48537841  0.30619609  0.52326213    -0.12700
F2023       F  0.91903793  0.15445297  0.53804859    -0.13200
C2024       C  0.52931580  0.29216278  0.49612001     0.16600
C2025       C  0.56533377  0.31200785  0.48788158     0.26000
C2026       C  0.59647861  0.30656771  0.49299842    -0.40300
C2027       C  0.59185515  0.28406889  0.50787091     0.32900
C2028       C  0.55621106  0.26523082  0.51650321     0.14600
F2029       F  0.49910818  0.29576410  0.48983746    -0.12700
F2030       F  0.62161695  0.28000810  0.51419576    -0.13200
F2031       F  0.56971242  0.33679590  0.47497422    -0.15500
F2032       F  0.55312742  0.24430287  0.53096402    -0.14000
F2033       F  0.98645838  0.18942327  0.51940611    -0.14000
F2034       F  0.91206122  0.26782547  0.53741526    -0.15500
C2035       C  0.83671090  0.67307247  0.54164094     0.47400
H2036       H  0.83700032  0.67365612  0.52695648    -0.01600
C2037       C  0.83689148  0.67252398  0.57612161     0.47500
H2038       H  0.83718333  0.67215379  0.59082132    -0.01600
C2039       C  0.87764615  0.69231719  0.55008220    -0.15300
C2040       C  0.81708964  0.69375298  0.54990467    -0.15100
C2041       C  0.81547093  0.63311325  0.54958171    -0.15400
C2042       C  0.87754169  0.69194529  0.56816129    -0.15400
C2043       C  0.81682420  0.69299129  0.56812779    -0.15000
C2044       C  0.81620332  0.63319974  0.56779223    -0.15300
C2045       C  0.67292639  0.84293696  0.45748511     0.47400
H2046       H  0.67466045  0.84423549  0.44284587    -0.01600
C2047       C  0.67163843  0.84030913  0.49187801     0.47500
H2048       H  0.67208605  0.84020928  0.50654112    -0.01600
C2049       C  0.69359902  0.82319632  0.46531141    -0.15300
C2050       C  0.69144502  0.88166693  0.46650330    -0.15100
C2051       C  0.63141950  0.82115722  0.46474752    -0.15400
C2052       C  0.69303389  0.82154325  0.48335983    -0.15400
C2053       C  0.69116127  0.88045530  0.48452850    -0.15000
C2054       C  0.63055926  0.82057712  0.48314766    -0.15300
O2055       O  0.59870295  0.75305941  0.69788053    -0.78900
O2056       O  0.69284018  0.88828338  0.64889071    -0.63600
O2057       O  0.66529164  0.81435381  0.68471342    -1.10200
C2058       C  0.62428164  0.89079295  0.71483968     1.07900
O2059       O  0.72152118  0.93371519  0.66854923    -0.76800
O2060       O  0.71834272  0.92299663  0.70356812    -0.64400
Ni2061     Ni  0.63431721  0.76236527  0.67899667     1.34900
C2062       C  0.71916864  0.89746892  0.71272911     0.86700
O2063       O  0.70227546  0.82828900  0.65208129    -0.77400
O2064       O  0.66798020  0.76741897  0.65981731    -0.87700
C2065       C  0.71448821  0.92279457  0.65253815     0.86300
O2066       O  0.59822954  0.76583698  0.66347809    -0.65900
O2067       O  0.64631409  0.91679173  0.70423186    -0.85100
C2068       C  0.60120421  0.79155166  0.65323040     0.87100
C2069       C  0.69411593  0.79406976  0.65069007     1.08700
H2070       H  0.63037590  0.86546801  0.67592249     0.40500
O2071       O  0.65485170  0.87046644  0.68122184    -1.07800
O2072       O  0.69233148  0.86325339  0.71201968    -0.64500
Ni2073     Ni  0.64295768  0.83547911  0.70004738     1.26300
O2074       O  0.63120335  0.82395347  0.65282862    -0.64700
O2075       O  0.62085180  0.85807107  0.71491954    -0.77000
C2076       C  0.60842821  0.76306739  0.71385428     0.86500
O2077       O  0.63046694  0.79759158  0.71766044    -0.64200
Ni2078     Ni  0.68295025  0.92300588  0.68631644     1.27400
Ni2079     Ni  0.67879611  0.85023899  0.66627707     1.26100
H2080       H  0.68908582  0.81766717  0.68992445     0.41000
C2081       C  0.99034591  0.51092800  0.79204483     0.47400
H2082       H  0.99157981  0.51186973  0.77736157    -0.01600
C2083       C  0.98800055  0.50888688  0.82647673     0.47500
H2084       H  0.98701914  0.50795761  0.84115739    -0.01600
C2085       C  0.00607376  0.99041153  0.80015255    -0.15300
C2086       C  0.00770733  0.54990083  0.80067898    -0.15100
C2087       C  0.94247389  0.98561373  0.79909730    -0.15400
C2088       C  0.00530875  0.99012033  0.81827787    -0.15400
C2089       C  0.00659989  0.54906682  0.81884480    -0.15000
C2090       C  0.94118751  0.98504196  0.81722626    -0.15300
C2091       C  0.64520018  0.83753646  0.87427379     0.47400
H2092       H  0.64493235  0.83830906  0.85958864    -0.01600
C2093       C  0.64618124  0.83577839  0.90872646     0.47500
H2094       H  0.64661632  0.83502056  0.92342330    -0.01600
C2095       C  0.62419860  0.79740948  0.88198875    -0.15300
C2096       C  0.68644270  0.85647735  0.88248586    -0.15100
C2097       C  0.62565706  0.85777510  0.88307652    -0.15400
C2098       C  0.62527673  0.79681704  0.90013128    -0.15400
C2099       C  0.68667714  0.85559683  0.90063086    -0.15000
C2100       C  0.62586270  0.85623867  0.90125188    -0.15300
C2101       C  0.85484651  0.67122680  0.15981464     0.47400
H2102       H  0.85483970  0.67023652  0.17450064    -0.01600
C2103       C  0.85496755  0.67394068  0.12534833     0.47500
H2104       H  0.85503693  0.67513683  0.11065832    -0.01600
C2105       C  0.87462347  0.65116019  0.15094913    -0.15300
C2106       C  0.81398661  0.65325362  0.15145296    -0.15100
C2107       C  0.87547555  0.71132987  0.15240744    -0.15400
C2108       C  0.87455332  0.65273259  0.13279608    -0.15400
C2109       C  0.81419095  0.65434259  0.13330240    -0.15000
C2110       C  0.87602726  0.71273082  0.13429386    -0.15300
C2111       C  0.51853073  0.00033498  0.20795729     0.47400
H2112       H  0.51751087  0.00080687  0.19331346    -0.01600
C2113       C  0.52116784  0.00171860  0.24238921     0.47500
H2114       H  0.52289561  0.00320038  0.25703670    -0.01600
C2115       C  0.56068284  0.52181881  0.21627608    -0.15300
C2116       C  0.49759221  0.51852110  0.21510669    -0.15100
C2117       C  0.49939720  0.96054507  0.21638729    -0.15400
C2118       C  0.56000190  0.52198601  0.23442308    -0.15400
C2119       C  0.49692187  0.51841613  0.23317790    -0.15000
C2120       C  0.50293790  0.96172366  0.23468348    -0.15300
O2121       O  0.78248321  0.58231028  0.36461744    -0.78900
O2122       O  0.88125201  0.71636506  0.31514362    -0.63600
O2123       O  0.85036025  0.64371122  0.35172110    -1.10200
C2124       C  0.80817431  0.72267392  0.37794918     1.07900
O2125       O  0.91184819  0.76118962  0.33514059    -0.76800
O2126       O  0.90264196  0.75307228  0.37083940    -0.64400
Ni2127     Ni  0.82093148  0.59118807  0.34703461     1.34900
C2128       C  0.90163990  0.72709717  0.38038577     0.86700
O2129       O  0.88704434  0.65474681  0.31908645    -0.77400
O2130       O  0.85714567  0.59537239  0.32928300    -0.87700
C2131       C  0.90649900  0.74999946  0.31908176     0.86300
O2132       O  0.78654910  0.59250123  0.32970388    -0.65900
O2133       O  0.83160320  0.74845234  0.36754745    -0.85100
C2134       C  0.78755066  0.61770843  0.31963867     0.87100
C2135       C  0.88102387  0.62117364  0.31907961     1.08700
H2136       H  0.81807738  0.69635843  0.34098863     0.40500
O2137       O  0.84180049  0.70054696  0.34670856    -1.07800
O2138       O  0.87521946  0.69289358  0.37889548    -0.64500
Ni2139     Ni  0.82732061  0.66610797  0.36565783     1.26300
O2140       O  0.81621739  0.65124466  0.31949170    -0.64700
O2141       O  0.80461134  0.68998879  0.37886467    -0.77000
C2142       C  0.78887934  0.59470459  0.38040949     0.86500
O2143       O  0.81189410  0.62919699  0.38364181    -0.64200
Ni2144     Ni  0.87100479  0.75304147  0.35144875     1.27400
Ni2145     Ni  0.86469806  0.67832795  0.33268582     1.26100
H2146       H  0.87417345  0.64793908  0.35743756     0.41000
O2147       O  0.53611029  0.59579216  0.00269751    -0.78900
O2148       O  0.98735080  0.95777860  0.05104093    -0.63600
O2149       O  0.53801177  0.53338039  0.01605432    -1.10200
C2150       C  0.91015479  0.95723971  0.98677721     1.07900
O2151       O  0.96699752  0.91260418  0.03113747    -0.76800
O2152       O  0.96996461  0.92325502  0.99605230    -0.64400
Ni2153     Ni  0.56108422  0.58538627  0.02197884     1.34900
C2154       C  0.49624822  0.94697267  0.98674688     0.86700
O2155       O  0.56050871  0.51834875  0.04869468    -0.77400
O2156       O  0.58832932  0.57980581  0.04181734    -0.87700
C2157       C  0.97370393  0.92338839  0.04718609     0.86300
O2158       O  0.52132606  0.58203871  0.03689760    -0.65900
O2159       O  0.90523899  0.93098941  0.99735883    -0.85100
C2160       C  0.00001125  0.55761859  0.04686223     0.87100
C2161       C  0.58629154  0.55270565  0.05091917     1.08700
H2162       H  0.94671699  0.98208487  0.02515286     0.40500
O2163       O  0.96502102  0.97656858  0.01943030    -1.07800
O2164       O  0.50887426  0.98198778  0.98871530    -0.64500
Ni2165     Ni  0.99509450  0.51432415  0.00095425     1.26300
O2166       O  0.99884710  0.52608797  0.04865780    -0.64700
O2167       O  0.94089807  0.98945223  0.98640383    -0.77000
C2168       C  0.53372455  0.58507727  0.98677159     0.86500
O2169       O  0.51969866  0.55045954  0.98307210    -0.64200
Ni2170     Ni  0.93748541  0.92401912  0.01432134     1.27400
Ni2171     Ni  0.51203682  0.99436387  0.03395809     1.26100
H2172       H  0.55824731  0.52990405  0.01089887     0.41000
C2173       C  0.63026310  0.58131031  0.27106583     0.14600
C2174       C  0.65788041  0.56941329  0.27053941     0.01600
C2175       C  0.65399826  0.54279656  0.25778310     0.16600
C2176       C  0.62283995  0.52817229  0.24568446     0.26000
C2177       C  0.59490354  0.53977402  0.24626029    -0.40400
C2178       C  0.59883491  0.56637656  0.25910416     0.33000
C2179       C  0.68996920  0.58341352  0.28371002     0.01600
F2180       F  0.68009219  0.53049048  0.25730412    -0.12700
F2181       F  0.57217497  0.57784484  0.26011867    -0.13200
C2182       C  0.68692205  0.56143337  0.29844142     0.16600
C2183       C  0.71823889  0.57291737  0.31024581     0.26000
C2184       C  0.75354577  0.60686445  0.30754233    -0.40300
C2185       C  0.75590989  0.62940708  0.29295820     0.32900
C2186       C  0.72434769  0.61769946  0.28117353     0.14600
F2187       F  0.65358291  0.52850358  0.30129083    -0.12700
F2188       F  0.78909039  0.66218692  0.28971723    -0.13200
F2189       F  0.71378890  0.55051432  0.32429524    -0.15500
F2190       F  0.72765111  0.63935555  0.26698756    -0.14000
F2191       F  0.63329658  0.60673154  0.28342269    -0.14000
F2192       F  0.61902141  0.50146138  0.23392675    -0.15500
C2193       C  0.93376329  0.79901141  0.27472276     0.14600
C2194       C  0.96513692  0.83420961  0.27961976     0.01600
C2195       C  0.98123058  0.83925821  0.29669902     0.16600
C2196       C  0.96377447  0.81081272  0.30927960     0.26000
C2197       C  0.92971894  0.77679652  0.30496880    -0.40400
C2198       C  0.91624190  0.77040032  0.28726738     0.33000
C2199       C  0.97666616  0.86716882  0.26810363     0.01600
F2200       F  0.50938021  0.86950221  0.30141430    -0.12700
F2201       F  0.88438869  0.73755125  0.28233854    -0.13200
C2202       C  0.96814215  0.89507523  0.27341677     0.16600
C2203       C  0.97626349  0.92537690  0.26240673     0.26000
C2204       C  0.99419757  0.92909060  0.24596796    -0.40300
C2205       C  0.50274139  0.90079474  0.24142311     0.32900
C2206       C  0.99444306  0.87045635  0.25174921     0.14600
F2207       F  0.95062500  0.89225133  0.28913865    -0.12700
F2208       F  0.52270250  0.90426823  0.22640309    -0.13200
F2209       F  0.96523108  0.95027462  0.26769834    -0.15500
F2210       F  0.00262178  0.84359150  0.24628347    -0.14000
F2211       F  0.91811943  0.79336813  0.25818034    -0.14000
F2212       F  0.97942550  0.81720521  0.32584468    -0.15500
C2213       C  0.98251120  0.59151839  0.25842056     0.14600
C2214       C  0.94782941  0.56814913  0.26735231     0.01600
C2215       C  0.92755973  0.52931560  0.26378601     0.16600
C2216       C  0.94266392  0.51384438  0.25199011     0.26000
C2217       C  0.97852987  0.53684690  0.24395918    -0.40400
C2218       C  0.99775705  0.57590446  0.24671678     0.33000
C2219       C  0.93325025  0.58394487  0.28077902     0.01600
F2220       F  0.89322536  0.50644113  0.27178936    -0.12700
F2221       F  0.53054708  0.59747993  0.23732794    -0.13200
C2222       C  0.92188580  0.61023619  0.27604189     0.16600
C2223       C  0.90665116  0.62396735  0.28875002     0.26000
C2224       C  0.90185900  0.61087341  0.30625723    -0.40300
C2225       C  0.91433893  0.58538445  0.31105069     0.32900
C2226       C  0.93010768  0.57217648  0.29841431     0.14600
F2227       F  0.92405815  0.62135594  0.25897395    -0.12700
F2228       F  0.91129816  0.57331874  0.32799616    -0.13200
F2229       F  0.89470178  0.64847522  0.28373786    -0.15500
F2230       F  0.94220145  0.54773542  0.30335248    -0.14000
F2231       F  0.00228758  0.62916398  0.26158897    -0.14000
F2232       F  0.92332067  0.97271970  0.24786285    -0.15500
C2233       C  0.94420001  0.78565369  0.10222747     0.14600
C2234       C  0.92992828  0.81091667  0.10166951     0.01600
C2235       C  0.89902637  0.80494820  0.11269531     0.16600
C2236       C  0.88174250  0.77335228  0.12363434     0.26000
C2237       C  0.89556248  0.74771074  0.12385602    -0.40400
C2238       C  0.92699117  0.75420159  0.11315805     0.33000
C2239       C  0.94398969  0.84052996  0.08803635     0.01600
F2240       F  0.88404534  0.82840331  0.11203444    -0.12700
F2241       F  0.94053379  0.72960150  0.11302891    -0.13200
C2242       C  0.93982000  0.83012126  0.07013004     0.16600
C2243       C  0.95091219  0.85716185  0.05694067     0.26000
C2244       C  0.96582219  0.89541885  0.06134714    -0.40300
C2245       C  0.97092599  0.90595378  0.07940352     0.32900
C2246       C  0.96009786  0.87867254  0.09261444     0.14600
F2247       F  0.92352273  0.79332890  0.06536230    -0.12700
F2248       F  0.98568975  0.94246826  0.08436077    -0.13200
F2249       F  0.43859696  0.84223362  0.03825661    -0.15500
F2250       F  0.96516819  0.88945132  0.10987420    -0.14000
F2251       F  0.97414602  0.79093882  0.09176404    -0.14000
F2252       F  0.85002191  0.76657318  0.13309634    -0.15500
C2253       C  0.73856221  0.64396795  0.09963815     0.14600
C2254       C  0.71068445  0.60576221  0.10142971     0.01600
C2255       C  0.71700187  0.58344092  0.11357857     0.16600
C2256       C  0.75096533  0.59916140  0.12383122     0.26000
C2257       C  0.77878864  0.63744270  0.12212159    -0.40400
C2258       C  0.77261506  0.65967636  0.10984250     0.33000
C2259       C  0.67621840  0.58885419  0.08978284     0.01600
F2260       F  0.69029662  0.54645244  0.11543622    -0.12700
F2261       F  0.79923745  0.69667614  0.10794690    -0.13200
C2262       C  0.67214445  0.56238477  0.07689251     0.16600
C2263       C  0.64155037  0.54900328  0.06460922     0.26000
C2264       C  0.61521971  0.56244947  0.06501455    -0.40300
C2265       C  0.61859742  0.58803594  0.07822246     0.32900
C2266       C  0.64884991  0.60103542  0.09063118     0.14600
F2267       F  0.69905950  0.55119931  0.07563195    -0.12700
F2268       F  0.59286917  0.60079942  0.07887505    -0.13200
F2269       F  0.63904868  0.52484754  0.05168389    -0.15500
F2270       F  0.65199896  0.62609520  0.10322121    -0.14000
F2271       F  0.73309741  0.66575712  0.08771550    -0.14000
F2272       F  0.75713296  0.57687393  0.13514572    -0.15500
C2273       C  0.94944964  0.63537376  0.11035757     0.14600
C2274       C  0.92644074  0.60784977  0.09771612     0.01600
C2275       C  0.88631580  0.59476938  0.09680729     0.16600
C2276       C  0.86942406  0.60929327  0.10827011     0.26000
C2277       C  0.89236417  0.63662971  0.12100449    -0.40400
C2278       C  0.93247966  0.64949060  0.12200295     0.33000
C2279       C  0.94457076  0.59440823  0.08474862     0.01600
F2280       F  0.86375128  0.56861707  0.08449392    -0.12700
F2281       F  0.95538472  0.67664191  0.13386048    -0.13200
C2282       C  0.94002346  0.55824923  0.08601539     0.16600
C2283       C  0.95718353  0.54571253  0.07357106     0.26000
C2284       C  0.97904677  0.56918586  0.05950377    -0.40300
C2285       C  0.98270677  0.60531351  0.05823173     0.32900
C2286       C  0.96589761  0.61772274  0.07077816     0.14600
F2287       F  0.91946001  0.53533202  0.09950971    -0.12700
F2288       F  0.47448362  0.61011872  0.03865178    -0.13200
F2289       F  0.95262146  0.51078588  0.07546611    -0.15500
F2290       F  0.97028063  0.65266046  0.06922682    -0.14000
F2291       F  0.98840788  0.64883840  0.11126360    -0.14000
F2292       F  0.83060619  0.59643873  0.10704858    -0.15500
C2293       C  0.89556715  0.57448386  0.16555836     0.14600
C2294       C  0.92671711  0.59389270  0.17757300     0.01600
C2295       C  0.93928012  0.63192277  0.18145250     0.16600
C2296       C  0.92163567  0.65032916  0.17316170     0.26000
C2297       C  0.89095989  0.63096593  0.16100046    -0.40400
C2298       C  0.87752163  0.59269545  0.15756874     0.33000
C2299       C  0.94521323  0.57413268  0.18639478     0.01600
F2300       F  0.96838839  0.65115084  0.19341199    -0.12700
F2301       F  0.84686692  0.57293613  0.14640680    -0.13200
C2302       C  0.98572863  0.58855977  0.18569427     0.16600
C2303       C  0.00296387  0.57044991  0.19465640     0.26000
C2304       C  0.97992899  0.53751537  0.20428936    -0.40300
C2305       C  0.93942716  0.52224971  0.20433063     0.32900
C2306       C  0.92226450  0.54059766  0.19569703     0.14600
F2307       F  0.00856230  0.62011723  0.17630501    -0.12700
F2308       F  0.91643014  0.48950444  0.21283363    -0.13200
F2309       F  0.54076458  0.58320085  0.19367479    -0.15500
F2310       F  0.88322422  0.52611760  0.19687579    -0.14000
F2311       F  0.88306159  0.53800102  0.16127006    -0.14000
F2312       F  0.93532348  0.68736429  0.17658988    -0.15500
C2313       C  0.73442838  0.59265736  0.18335928     0.14600
C2314       C  0.70686202  0.60413368  0.18011864     0.01600
C2315       C  0.71588443  0.63384016  0.16836912     0.16600
C2316       C  0.75138990  0.65088235  0.15953080     0.26000
C2317       C  0.77814535  0.63808972  0.16213734    -0.40400
C2318       C  0.76975528  0.60945267  0.17440640     0.33000
C2319       C  0.66821819  0.58385978  0.18848486     0.01600
F2320       F  0.68975493  0.64540336  0.16497293    -0.12700
F2321       F  0.79495557  0.59648945  0.17708190    -0.13200
C2322       C  0.65524277  0.60274476  0.19962891     0.16600
C2323       C  0.61961427  0.58269059  0.20825377     0.26000
C2324       C  0.59685331  0.54343786  0.20608811    -0.40300
C2325       C  0.60974716  0.52475145  0.19487060     0.32900
C2326       C  0.64471433  0.54486510  0.18585426     0.14600
F2327       F  0.67761573  0.64031673  0.20259981    -0.12700
F2328       F  0.58990718  0.48675250  0.19355588    -0.13200
F2329       F  0.60760122  0.60145624  0.21896530    -0.15500
F2330       F  0.65600848  0.52616168  0.17471493    -0.14000
F2331       F  0.72680578  0.56473453  0.19505459    -0.14000
F2332       F  0.75943615  0.67959300  0.14826739    -0.15500
C2333       C  0.96758981  0.88296823  0.18124409     0.14600
C2334       C  0.93656687  0.85233944  0.18973825     0.01600
C2335       C  0.92255225  0.85890512  0.20557163     0.16600
C2336       C  0.94048999  0.89495562  0.21307846     0.26000
C2337       C  0.97511281  0.92432870  0.20588370    -0.40400
C2338       C  0.98713087  0.91832540  0.18936534     0.33000
C2339       C  0.91993570  0.81390273  0.18205738     0.01600
F2340       F  0.89264722  0.83026269  0.21423966    -0.12700
F2341       F  0.51923457  0.94853745  0.18103672    -0.13200
C2342       C  0.94502605  0.80087887  0.17644445     0.16600
C2343       C  0.93052240  0.76732509  0.16688175     0.26000
C2344       C  0.89051523  0.74499399  0.16381063    -0.40300
C2345       C  0.86495746  0.75612516  0.17066011     0.32900
C2346       C  0.87955450  0.79078205  0.17936123     0.14600
F2347       F  0.98378854  0.82101676  0.18000800    -0.12700
F2348       F  0.82601634  0.73451767  0.16793941    -0.13200
F2349       F  0.95558960  0.75700518  0.16027485    -0.15500
F2350       F  0.85437176  0.80244620  0.18428335    -0.14000
F2351       F  0.97961720  0.87846847  0.16512932    -0.14000
F2352       F  0.92428580  0.90082821  0.22760383    -0.15500
C2353       C  0.75948364  0.86794541  0.93621681     0.14600
C2354       C  0.78517912  0.90702651  0.93589498     0.01600
C2355       C  0.77913114  0.92907913  0.92339895     0.16600
C2356       C  0.74746917  0.91230867  0.91161453     0.26000
C2357       C  0.72188336  0.87325932  0.91201939    -0.40400
C2358       C  0.72801972  0.85125988  0.92443060     0.33000
C2359       C  0.81746763  0.92439440  0.94898781     0.01600
F2360       F  0.80289031  0.96697224  0.92311467    -0.12700
F2361       F  0.70338322  0.81354234  0.92517251    -0.13200
C2362       C  0.85637419  0.94458469  0.94350128     0.16600
C2363       C  0.88674976  0.95739403  0.95597302     0.26000
C2364       C  0.87857000  0.94909040  0.97400183    -0.40300
C2365       C  0.83968650  0.93004058  0.97950410     0.32900
C2366       C  0.80943450  0.91852658  0.96713822     0.14600
F2367       F  0.86495550  0.95007570  0.92603319    -0.12700
F2368       F  0.83099361  0.92227944  0.99686856    -0.13200
F2369       F  0.92410056  0.97571852  0.95032586    -0.15500
F2370       F  0.77212225  0.90093627  0.97283949    -0.14000
F2371       F  0.76487599  0.84590246  0.94801073    -0.14000
F2372       F  0.74059665  0.93438381  0.90046658    -0.15500
C2373       C  0.56815689  0.72567356  0.93528953     0.14600
C2374       C  0.58129877  0.69975540  0.93340316     0.01600
C2375       C  0.60787769  0.70490078  0.92007793     0.16600
C2376       C  0.62177609  0.73615875  0.90896877     0.26000
C2377       C  0.60893151  0.76236086  0.91100517    -0.40400
C2378       C  0.58198330  0.75684226  0.92421528     0.33000
C2379       C  0.57014138  0.66970793  0.94655576     0.01600
F2380       F  0.62177487  0.68071397  0.91843950    -0.12700
F2381       F  0.56925961  0.78181002  0.92647131    -0.13200
C2382       C  0.54481010  0.63184723  0.94211072     0.16600
C2383       C  0.53297800  0.60396329  0.95508755     0.26000
C2384       C  0.54637857  0.61375633  0.97268149    -0.40300
C2385       C  0.57238296  0.65186918  0.97690040     0.32900
C2386       C  0.58408453  0.67944217  0.96395144     0.14600
F2387       F  0.53071929  0.62210587  0.92534037    -0.12700
F2388       F  0.58694587  0.66264862  0.99355894    -0.13200
F2389       F  0.00142881  0.56924347  0.95199383    -0.15500
F2390       F  0.60917230  0.71588658  0.96838734    -0.14000
F2391       F  0.54249460  0.72108667  0.94814672    -0.14000
F2392       F  0.64927137  0.74191690  0.89688177    -0.15500
C2393       C  0.52644777  0.88480835  0.96197182     0.14600
C2394       C  0.55253825  0.90995442  0.94962346     0.01600
C2395       C  0.56051969  0.94735491  0.94949068     0.16600
C2396       C  0.54230671  0.95949133  0.96147950     0.26000
C2397       C  0.51596961  0.93436858  0.97400679    -0.40400
C2398       C  0.50846830  0.89682864  0.97410895     0.33000
C2399       C  0.57148130  0.89705401  0.93689848     0.01600
F2400       F  0.58549747  0.97195974  0.93749836    -0.12700
F2401       F  0.48412576  0.87165658  0.98609029    -0.13200
C2402       C  0.54944021  0.87125718  0.92347419     0.16600
C2403       C  0.56721401  0.85840555  0.91164588     0.26000
C2404       C  0.60723950  0.87117284  0.91313858    -0.40300
C2405       C  0.62919394  0.89671013  0.92667159     0.32900
C2406       C  0.61147272  0.90978294  0.93840274     0.14600
F2407       F  0.51068051  0.85845429  0.92190654    -0.12700
F2408       F  0.66787033  0.90921418  0.92841723    -0.13200
F2409       F  0.54515809  0.83254832  0.89912588    -0.15500
F2410       F  0.63310281  0.93421311  0.95148690    -0.14000
F2411       F  0.51883230  0.84861839  0.96242836    -0.14000
F2412       F  0.55005578  0.99567644  0.96054589    -0.15500
C2413       C  0.51781441  0.92299881  0.84905598     0.14600
C2414       C  0.55800119  0.93675679  0.84744294     0.01600
C2415       C  0.58066061  0.96998409  0.83794563     0.16600
C2416       C  0.56323628  0.98843044  0.82966298     0.26000
C2417       C  0.52285397  0.97375909  0.83058709    -0.40400
C2418       C  0.00282223  0.94269917  0.83977009     0.33000
C2419       C  0.57651519  0.91691961  0.85589781     0.01600
F2420       F  0.61954058  0.98397029  0.83629160    -0.12700
F2421       F  0.96387977  0.92844565  0.84129120    -0.13200
C2422       C  0.56639441  0.88019408  0.85061584     0.16600
C2423       C  0.58314562  0.86117689  0.85910766     0.26000
C2424       C  0.61035267  0.87876074  0.87291487    -0.40300
C2425       C  0.62211762  0.91630315  0.87740596     0.32900
C2426       C  0.60486115  0.93495960  0.86919061     0.14600
F2427       F  0.54042664  0.86289442  0.83719458    -0.12700
F2428       F  0.65057701  0.93505473  0.88970182    -0.13200
F2429       F  0.57195573  0.82528076  0.85420426    -0.15500
F2430       F  0.61530416  0.97048701  0.87444441    -0.14000
F2431       F  0.99872315  0.89390764  0.85829540    -0.14000
F2432       F  0.59200974  0.51853271  0.81855220    -0.15500
C2433       C  0.56303493  0.62821142  0.85061563     0.14600
C2434       C  0.54944567  0.65322047  0.84654279     0.01600
C2435       C  0.51836495  0.64195398  0.83450412     0.16600
C2436       C  0.00403557  0.60687080  0.82751153     0.26000
C2437       C  0.51703133  0.58257322  0.82947950    -0.40400
C2438       C  0.54682809  0.59304338  0.84217687     0.33000
C2439       C  0.56790782  0.69124158  0.85465957     0.01600
F2440       F  0.00493677  0.66443768  0.83300490    -0.12700
F2441       F  0.56160160  0.57007423  0.84570323    -0.13200
C2442       C  0.60678173  0.71787575  0.85095056     0.16600
C2443       C  0.62456075  0.75345988  0.85904330     0.26000
C2444       C  0.60378687  0.76267518  0.87106453    -0.40300
C2445       C  0.56433034  0.73671981  0.87406083     0.32900
C2446       C  0.54661053  0.70119833  0.86601265     0.14600
F2447       F  0.62754012  0.70923269  0.83958995    -0.12700
F2448       F  0.54319863  0.74557303  0.88509457    -0.13200
F2449       F  0.66256909  0.77817714  0.85584653    -0.15500
F2450       F  0.50899340  0.67604376  0.86973051    -0.14000
F2451       F  0.59231629  0.63810482  0.86260916    -0.14000
F2452       F  0.97328180  0.59648379  0.81633286    -0.15500
C2453       C  0.76619262  0.92281161  0.85177265     0.14600
C2454       C  0.79290836  0.90964084  0.85308206     0.01600
C2455       C  0.78354668  0.87803613  0.86365985     0.16600
C2456       C  0.74854823  0.86029506  0.87289077     0.26000
C2457       C  0.72225974  0.87381610  0.87176336    -0.40400
C2458       C  0.73109983  0.90494986  0.86102513     0.33000
C2459       C  0.83087496  0.92908668  0.84381661     0.01600
F2460       F  0.80888615  0.86499065  0.86548137    -0.12700
F2461       F  0.70643654  0.91894279  0.86007485    -0.13200
C2462       C  0.85702312  0.96761273  0.84681774     0.16600
C2463       C  0.89333847  0.98554467  0.83856419     0.26000
C2464       C  0.90419985  0.96530673  0.82720789    -0.40300
C2465       C  0.87832869  0.92670046  0.82438201     0.32900
C2466       C  0.84185854  0.90887981  0.83242602     0.14600
F2467       F  0.84757043  0.98781163  0.85791793    -0.12700
F2468       F  0.88845862  0.90618990  0.81383672    -0.13200
F2469       F  0.92380870  0.52424521  0.84206978    -0.15500
F2470       F  0.81694617  0.87195179  0.82885151    -0.14000
F2471       F  0.77406191  0.95294868  0.84153287    -0.14000
F2472       F  0.74035691  0.82994720  0.88304022    -0.15500
C2473       C  0.85153397  0.97143167  0.77566832     0.14600
C2474       C  0.84505909  0.94311172  0.76339651     0.01600
C2475       C  0.86952386  0.92743788  0.76346709     0.16600
C2476       C  0.90092994  0.94080820  0.77534194     0.26000
C2477       C  0.90779451  0.96959104  0.78740032    -0.40400
C2478       C  0.88261334  0.98446115  0.78767202     0.33000
C2479       C  0.81354806  0.93085593  0.75012692     0.01600
F2480       F  0.86355915  0.89997071  0.75169845    -0.12700
F2481       F  0.88901209  0.01255388  0.79913329    -0.13200
C2482       C  0.81639864  0.95518741  0.73646895     0.16600
C2483       C  0.78630254  0.94407636  0.72402337     0.26000
C2484       C  0.75251167  0.90831463  0.72511736    -0.40300
C2485       C  0.75042306  0.88365651  0.73866860     0.32900
C2486       C  0.78064449  0.89497278  0.75107378     0.14600
F2487       F  0.84855560  0.98973276  0.73516163    -0.12700
F2488       F  0.71878894  0.84886406  0.74026278    -0.13200
F2489       F  0.79052502  0.96837302  0.71087931    -0.15500
F2490       F  0.77738052  0.87123846  0.76432303    -0.14000
F2491       F  0.82793552  0.98665839  0.77587367    -0.14000
F2492       F  0.94034116  0.43980035  0.77084047    -0.15500
C2493       C  0.56528730  0.66786665  0.73590517     0.14600
C2494       C  0.56311569  0.67665983  0.75363197     0.01600
C2495       C  0.57631045  0.71432058  0.75844937     0.16600
C2496       C  0.59119845  0.74273445  0.74562320     0.26000
C2497       C  0.59286729  0.73378082  0.72776748    -0.40400
C2498       C  0.57977856  0.69593416  0.72311824     0.33000
C2499       C  0.54725973  0.64604560  0.76684963     0.01600
F2500       F  0.57411959  0.72344017  0.77549788    -0.12700
F2501       F  0.58178968  0.68594083  0.70619355    -0.13200
C2502       C  0.57095145  0.64532882  0.78062334     0.16600
C2503       C  0.55742223  0.61388406  0.79164881     0.26000
C2504       C  0.51977026  0.58286666  0.78919299    -0.40300
C2505       C  0.99796882  0.58650503  0.77677440     0.32900
C2506       C  0.50939370  0.61544101  0.76464966     0.14600
F2507       F  0.60787175  0.67426616  0.78281865    -0.12700
F2508       F  0.96061901  0.55833099  0.77478717    -0.13200
F2509       F  0.58171887  0.61310873  0.80420590    -0.15500
F2510       F  0.98771153  0.61878448  0.75308902    -0.14000
F2511       F  0.55403290  0.63193559  0.73100356    -0.14000
F2512       F  0.60320442  0.77874916  0.75062320    -0.15500
C2513       C  0.57492971  0.93951823  0.73615110     0.14600
C2514       C  0.56860983  0.92521616  0.75344904     0.01600
C2515       C  0.57733031  0.89663365  0.75752352     0.16600
C2516       C  0.59364022  0.88387020  0.74474171     0.26000
C2517       C  0.60225130  0.90004065  0.72777092    -0.40400
C2518       C  0.59189473  0.92743460  0.72354994     0.33000
C2519       C  0.55423834  0.94135757  0.76715112     0.01600
F2520       F  0.57177721  0.88228119  0.77410176    -0.12700
F2521       F  0.59827910  0.94275819  0.70714702    -0.13200
C2522       C  0.52104903  0.91821248  0.77718776     0.16600
C2523       C  0.50637674  0.93420697  0.78910638     0.26000
C2524       C  0.52388878  0.97351078  0.79071848    -0.40300
C2525       C  0.55742472  0.99654022  0.78108223     0.32900
C2526       C  0.57295805  0.98065216  0.76969303     0.14600
F2527       F  0.50176444  0.88030423  0.77484980    -0.12700
F2528       F  0.57513729  0.03453839  0.78271303    -0.13200
F2529       F  0.97713874  0.91159383  0.79781076    -0.15500
F2530       F  0.60623370  0.00376080  0.76099520    -0.14000
F2531       F  0.56483419  0.96554212  0.73142877    -0.14000
F2532       F  0.60282352  0.85713337  0.74928477    -0.15500
C2533       C  0.75669614  0.77078940  0.39752323     0.14600
C2534       C  0.75031834  0.75693251  0.41490517     0.01600
C2535       C  0.75915860  0.72873431  0.41942354     0.16600
C2536       C  0.77584593  0.71589627  0.40702438     0.26000
C2537       C  0.78495045  0.73180727  0.39002860    -0.40400
C2538       C  0.77407596  0.75851652  0.38521384     0.33000
C2539       C  0.73647762  0.77337582  0.42850222     0.01600
F2540       F  0.75366882  0.71509011  0.43614416    -0.12700
F2541       F  0.78041200  0.77288938  0.36861222    -0.13200
C2542       C  0.70317227  0.75044898  0.43846601     0.16600
C2543       C  0.69007463  0.76651537  0.45106006     0.26000
C2544       C  0.70998283  0.80563717  0.45375256    -0.40300
C2545       C  0.74330013  0.82841285  0.44393014     0.32900
C2546       C  0.75676404  0.81244709  0.43155847     0.14600
F2547       F  0.68253530  0.71274525  0.43551384    -0.12700
F2548       F  0.76265397  0.86623339  0.44620161    -0.13200
F2549       F  0.65700358  0.74412586  0.46003370    -0.15500
F2550       F  0.78971042  0.83519350  0.42255438    -0.14000
F2551       F  0.74661280  0.79669085  0.39255050    -0.14000
F2552       F  0.78514406  0.68946760  0.41202377    -0.15500
C2553       C  0.48184046  0.72463283  0.40819526     0.14600
C2554       C  0.49562510  0.75805273  0.41806270     0.01600
C2555       C  0.97602619  0.77965357  0.41670754     0.16600
C2556       C  0.94548545  0.76932317  0.40452951     0.26000
C2557       C  0.93271596  0.73705303  0.39386845    -0.40400
C2558       C  0.95011712  0.71454479  0.39612605     0.33000
C2559       C  0.53086838  0.77215946  0.42952330     0.01600
F2560       F  0.98780724  0.81097059  0.42682703    -0.12700
F2561       F  0.93830239  0.68313953  0.38608356    -0.12000
C2562       C  0.56334171  0.80721871  0.42590119     0.16600
C2563       C  0.59586249  0.82252913  0.43709169     0.26000
C2564       C  0.59703193  0.80308593  0.45229791    -0.40300
C2565       C  0.56543361  0.76659118  0.45521428     0.32900
C2566       C  0.53237427  0.75156619  0.44409676     0.14600
F2567       F  0.56353235  0.82689972  0.41140763    -0.12700
F2568       F  0.56649236  0.74538270  0.46876374    -0.13200
F2569       F  0.62574844  0.85693779  0.43301279    -0.15500
F2570       F  0.00040014  0.71768057  0.44823646    -0.14000
F2571       F  0.49951611  0.70359962  0.40964197    -0.14000
F2572       F  0.92799619  0.79057248  0.40334604    -0.15500
C2573       C  0.68971001  0.95988655  0.44100180     0.14600
C2574       C  0.72835846  0.98050777  0.43537716     0.01600
C2575       C  0.75555675  0.97012401  0.44108235     0.16600
C2576       C  0.74385534  0.93866844  0.45182888     0.26000
C2577       C  0.70470341  0.91669173  0.45646562    -0.40400
C2578       C  0.67796777  0.92817825  0.45153389     0.33000
C2579       C  0.73972235  0.01093718  0.42244342     0.01600
F2580       F  0.79302167  0.98956172  0.43564617    -0.12700
F2581       F  0.64044004  0.90856753  0.45683564    -0.13200
C2582       C  0.77036294  0.54968836  0.42554462     0.16600
C2583       C  0.78436559  0.57724499  0.41245495     0.26000
C2584       C  0.76933345  0.56816905  0.39505030    -0.40300
C2585       C  0.73771721  0.53192942  0.39147225     0.32900
C2586       C  0.72366998  0.50457994  0.40461627     0.14600
F2587       F  0.78647051  0.55847111  0.44202140    -0.12700
F2588       F  0.72107761  0.52246187  0.37510664    -0.13200
F2589       F  0.81400714  0.61211530  0.41664418    -0.15500
F2590       F  0.69667346  0.96651237  0.40085204    -0.14000
F2591       F  0.66332244  0.97020410  0.43604880    -0.14000
F2592       F  0.77064026  0.92964122  0.45765846    -0.15500
C2593       C  0.73674727  0.74006544  0.62863419     0.14600
C2594       C  0.75272657  0.76103401  0.61332456     0.01600
C2595       C  0.75144774  0.79426508  0.61052297     0.16600
C2596       C  0.73331200  0.80591447  0.62286358     0.26000
C2597       C  0.71580799  0.78400086  0.63799923    -0.40400
C2598       C  0.71834999  0.75123609  0.64082292     0.33000
C2599       C  0.77035745  0.74723928  0.60047192     0.01600
F2600       F  0.76751141  0.81516302  0.59583887    -0.12700
F2601       F  0.70336247  0.72998917  0.65551336    -0.13200
C2602       C  0.74736034  0.72238153  0.58696479     0.16600
C2603       C  0.76203938  0.70409043  0.57660627     0.26000
C2604       C  0.80020952  0.71099804  0.57946393    -0.40300
C2605       C  0.82297342  0.73581069  0.59310962     0.32900
C2606       C  0.80819569  0.75390170  0.60346896     0.14600
F2607       F  0.71018212  0.71474347  0.58432399    -0.12700
F2608       F  0.85958982  0.74267617  0.59645913    -0.13200
F2609       F  0.73855898  0.67871350  0.56422034    -0.15500
F2610       F  0.83038693  0.77714895  0.61679778    -0.14000
F2611       F  0.73877432  0.70839972  0.63169086    -0.14000
F2612       F  0.73202531  0.83793449  0.61975874    -0.15500
C2613       C  0.96520925  0.76405216  0.59405970     0.14600
C2614       C  0.97727379  0.74108895  0.60261192     0.01600
C2615       C  0.95738835  0.70213664  0.59912611     0.16600
C2616       C  0.92503496  0.68624884  0.58779434     0.26000
C2617       C  0.91292321  0.70918406  0.57936564    -0.40400
C2618       C  0.93341080  0.74820692  0.58237768     0.33000
C2619       C  0.00916251  0.75715047  0.61588538     0.01600
F2620       F  0.96920147  0.67948784  0.60682166    -0.12700
F2621       F  0.92161808  0.77075044  0.57460379    -0.13200
C2622       C  0.00213730  0.74311483  0.63319176     0.16600
C2623       C  0.53062420  0.75462293  0.64506636     0.26000
C2624       C  0.56864194  0.78265164  0.64081564    -0.40300
C2625       C  0.57552135  0.79980577  0.62407763     0.32900
C2626       C  0.54560152  0.78699735  0.61139973     0.14600
F2627       F  0.96571314  0.71698063  0.63814976    -0.12700
F2628       F  0.61159149  0.82759743  0.61962488    -0.13200
F2629       F  0.52231390  0.73924615  0.66146360    -0.15500
F2630       F  0.55350612  0.80240878  0.59501148    -0.14000
F2631       F  0.98317051  0.80152206  0.59760527    -0.14000
F2632       F  0.90529491  0.64844011  0.58516020    -0.15500
C2633       C  0.80549937  0.54453487  0.58874830     0.14600
C2634       C  0.77630618  0.53632788  0.60114829     0.01600
C2635       C  0.75998278  0.55981775  0.60250499     0.16600
C2636       C  0.77287348  0.59129094  0.59158038     0.26000
C2637       C  0.80169197  0.59918982  0.57895820    -0.40400
C2638       C  0.81794443  0.57562173  0.57762320     0.33000
C2639       C  0.76416242  0.50429977  0.61328249     0.01600
F2640       F  0.73191228  0.55244437  0.61454948    -0.12700
F2641       F  0.84675195  0.58345449  0.56594278    -0.13200
C2642       C  0.78246377  0.50996188  0.62983413     0.16600
C2643       C  0.75994496  0.98837904  0.64221165     0.26000
C2644       C  0.73190827  0.95077715  0.63816481    -0.40300
C2645       C  0.71885397  0.94112964  0.62045871     0.32900
C2646       C  0.73239469  0.96878862  0.60736222     0.14600
F2647       F  0.81258192  0.54431858  0.63438009    -0.12700
F2648       F  0.69195156  0.90533445  0.61587414    -0.13200
F2649       F  0.77438311  0.99897479  0.65888852    -0.15500
F2650       F  0.71851880  0.95928691  0.59053901    -0.14000
F2651       F  0.82249050  0.52286147  0.58773322    -0.14000
F2652       F  0.75689270  0.61378742  0.59311973    -0.15500
C2653       C  0.79531501  0.76947986  0.53414834     0.14600
C2654       C  0.76776188  0.75053618  0.52058150     0.01600
C2655       C  0.75884553  0.71378627  0.51587553     0.16600
C2656       C  0.77561996  0.69570848  0.52513467     0.26000
C2657       C  0.80219548  0.71427506  0.53902947    -0.40400
C2658       C  0.81309821  0.75188957  0.54294753     0.33000
C2659       C  0.74843429  0.76905952  0.51135966     0.01600
F2660       F  0.73387574  0.69534855  0.50227030    -0.12700
F2661       F  0.84079667  0.77160872  0.55542043    -0.13200
C2662       C  0.77070633  0.80495206  0.50384755     0.16600
C2663       C  0.75252295  0.82219741  0.49504876     0.26000
C2664       C  0.71183531  0.80395497  0.49357487    -0.40300
C2665       C  0.68952863  0.76785766  0.50070306     0.32900
C2666       C  0.70758571  0.75076342  0.50976086     0.14600
F2667       F  0.81016559  0.82286605  0.50453970    -0.12700
F2668       F  0.65041620  0.74837630  0.49817321    -0.13200
F2669       F  0.77470938  0.85636280  0.48753508    -0.15500
F2670       F  0.68510068  0.71631290  0.51699200    -0.14000
F2671       F  0.80428058  0.80470809  0.53925487    -0.14000
F2672       F  0.76484947  0.65957422  0.52090678    -0.15500
C2673       C  0.76185577  0.96804260  0.50994079     0.14600
C2674       C  0.74131815  0.98793894  0.51070106     0.01600
C2675       C  0.70269090  0.97023924  0.50421012     0.16600
C2676       C  0.68516659  0.93367188  0.49725454     0.26000
C2677       C  0.70655168  0.91496276  0.49559165    -0.40400
C2678       C  0.74481754  0.93218840  0.50216128     0.33000
C2679       C  0.76033203  0.52734321  0.52111372     0.01600
F2680       F  0.68377467  0.49066567  0.50577243    -0.12700
F2681       F  0.76605605  0.91466878  0.50062308    -0.13200
C2682       C  0.79740373  0.55639697  0.51611615     0.16600
C2683       C  0.81492309  0.59132221  0.52490412     0.26000
C2684       C  0.79551708  0.59798789  0.53869123    -0.40300
C2685       C  0.75735332  0.56996989  0.54270913     0.32900
C2686       C  0.74038654  0.53478258  0.53438197     0.14600
F2687       F  0.81668512  0.55097542  0.50271381    -0.12700
F2688       F  0.73634687  0.57663911  0.55478275    -0.13200
F2689       F  0.85126455  0.61813343  0.52026254    -0.15500
F2690       F  0.70481715  0.50755315  0.53973462    -0.14000
F2691       F  0.79845101  0.98324708  0.51675608    -0.14000
F2692       F  0.64750206  0.91681557  0.49173065    -0.15500
C2693       C  0.96966032  0.71171861  0.52672708     0.14600
C2694       C  0.98605131  0.75022812  0.52255118     0.01600
C2695       C  0.96555776  0.76890417  0.52716931     0.16600
C2696       C  0.92914462  0.74929462  0.53513073     0.26000
C2697       C  0.91376302  0.71144097  0.53975769    -0.40400
C2698       C  0.93439549  0.69287815  0.53573556     0.33000
C2699       C  0.52395710  0.77132720  0.51276603     0.01600
F2700       F  0.47964824  0.80603321  0.52291431    -0.12700
F2701       F  0.92042851  0.65653641  0.54061445    -0.13200
C2702       C  0.52812910  0.79279661  0.49759285     0.16600
C2703       C  0.56358128  0.81112667  0.48882300     0.26000
C2704       C  0.59461141  0.80556925  0.49400415    -0.40300
C2705       C  0.59101015  0.78569960  0.50975462     0.32900
C2706       C  0.55631897  0.76937592  0.51917713     0.14600
F2707       F  0.49753136  0.79517038  0.49086197    -0.12700
F2708       F  0.62061094  0.78131942  0.51606971    -0.13200
F2709       F  0.56736489  0.83434350  0.47525817    -0.15500
F2710       F  0.55436970  0.75149607  0.53458460    -0.14000
F2711       F  0.98743464  0.69209434  0.52189286    -0.14000
F2712       F  0.90929365  0.76755708  0.53875979    -0.15500
loop_ 
_geom_bond_atom_site_label_1 
_geom_bond_atom_site_label_2 
_geom_bond_distance 
_geom_bond_site_symmetry_2 
_ccdc_geom_bond_type 
C1            H2   1.111       .  S
C1            C7   1.543       .  S
C1            C6   1.541       .  S
C1            C5   1.539       .  S
C3            H4   1.111       .  S
C3            C9   1.533       .  S
C3            C8   1.527       .  S
C3           C10   1.531       .  S
C5            C8   1.367       .  D
C5          C663   1.471       .  S
C6            C9   1.379       .  D
C6          C623   1.481       .  S
C7           C10   1.375       .  D
C7          C650   1.495       .  S
C8          C583   1.478       .  S
C9          C570   1.490       .  S
C10         C603   1.477       .  S
C11          H12   1.109       .  S
C11          C17   1.537       .  S
C11          C16   1.535       .  S
C11          C15   1.522       .  S
C13          H14   1.109       .  S
C13          C19   1.533       .  S
C13          C18   1.543       .  S
C13          C20   1.548       .  S
C15          C18   1.367       .  D
C15         C510   1.483       .  S
C16          C19   1.364       .  D
C16         C543   1.468       .  S
C17          C20   1.390       .  D
C17         C530   1.503       .  S
C18         C630   1.472       .  S
C19         C643   1.488       .  S
C20         C670   1.490       .  S
O21         Ni27   1.918       .  S
O21          C42   1.268       .  A
O22         Ni45   1.913       .  S
O22          C31   1.267       .  A
O23         Ni27   1.900       .  S
O23         Ni45   1.903       .  S
O23         Ni39   1.915       .  S
O23          H46   0.963       .  S
C24          O41   1.279       .  A
C24          O33   1.277       .  A
C24         C483   1.486       .  S
O25         Ni44   1.924       .  S
O25          C31   1.269       .  A
O26         Ni44   1.899       .  S
O26          C28   1.267       .  A
Ni27         O30   1.927       .  S
Ni27         O32   1.904       .  S
C28          O38   1.272       .  A
C28         C450   1.490       .  S
O29         Ni45   1.920       .  S
O29          C35   1.279       .  A
O30          C35   1.279       .  A
C31         C610   1.486       .  S
O32          C34   1.266       .  A
O33         Ni44   1.918       .  S
C34          O40   1.269       .  A
C34         C590   1.477       .  S
C35         C563   1.491       .  S
H36          O37   0.968       .  S
O37         Ni45   1.917       .  S
O37         Ni39   1.910       .  S
O37         Ni44   1.899       .  S
O38         Ni39   1.929       .  S
Ni39         O43   1.923       .  S
Ni39         O41   1.927       .  S
O40         Ni45   1.926       .  S
C42          O43   1.270       .  A
C42         C463   1.491       .  S
C47          H48   1.112       .  S
C47          C52   1.530       .  S
C47         C731   1.529   1_545  S
C47         C729   1.530   1_545  S
C49          H50   1.111       .  S
C49          C55   1.543       .  S
C49         C732   1.542   1_545  S
C49         C734   1.544   1_545  S
C51         C725   1.530       .  S
C51          C54   1.373       .  D
C51        C1846   1.481       .  S
C52          C55   1.370       .  D
C52        C1826   1.477       .  S
C53         C725   1.532       .  S
C53          C56   1.374       .  D
C53         C443   1.480       .  S
C54         C727   1.545       .  S
C54        C1739   1.488       .  S
C55        C1759   1.484       .  S
C56         C727   1.543       .  S
C56         C430   1.487       .  S
C57          H58   1.111       .  S
C57          C63   1.548       .  S
C57          C62   1.544       .  S
C57          C61   1.543       .  S
C59          H60   1.112       .  S
C59          C65   1.534       .  S
C59          C64   1.530       .  S
C59          C66   1.532       .  S
C61          C64   1.370       .  D
C61         C410   1.486       .  S
C62          C65   1.374       .  D
C62         C423   1.493       .  S
C63          C66   1.378       .  D
C63         C390   1.486       .  S
C64         C343   1.479       .  S
C65         C323   1.478       .  S
C66         C370   1.493       .  S
C67          H68   1.111       .  S
C67          C73   1.538       .  S
C67          C72   1.541       .  S
C67          C71   1.546       .  S
C69          H70   1.111       .  S
C69          C75   1.536       .  S
C69          C74   1.525       .  S
C69          C76   1.533       .  S
C71          C74   1.371       .  D
C71         C263   1.487       .  S
C72          C75   1.380       .  D
C72         C283   1.487       .  S
C73          C76   1.369       .  D
C73         C310   1.481       .  S
C74         C243   1.477       .  S
C75         C223   1.487       .  S
C76         C203   1.477       .  S
C77          H78   1.108       .  S
C77          C83   1.555   1_455  S
C77         C760   1.534   1_455  S
C77         C759   1.550       .  S
C79          H80   1.110       .  S
C79          C86   1.535   1_455  S
C79         C763   1.535   1_455  S
C79         C762   1.522       .  S
C81         C755   1.550   1_545  S
C81          C84   1.372       .  D
C81         C290   1.480       .  S
C82         C755   1.530   1_645  S
C82          C85   1.366       .  D
C82        C1626   1.484       .  S
C83          C86   1.386       .  D
C83        C1659   1.506       .  S
C84         C757   1.523       .  S
C84         C143   1.488       .  S
C85         C757   1.536   1_655  S
C85        C1539   1.467       .  S
C86        C1526   1.496       .  S
O87         Ni93   1.921       .  S
O87         C108   1.269       .  A
O88        Ni111   1.906       .  S
O88          C97   1.268       .  A
O89         Ni93   1.892       .  S
O89        Ni111   1.896       .  S
O89        Ni105   1.908       .  S
O89         H112   0.968       .  S
C90         O107   1.278       .  A
C90          O99   1.279       .  A
C90         C503   1.475       .  S
O91        Ni110   1.928       .  S
O91          C97   1.272       .  A
O92        Ni110   1.913       .  S
O92          C94   1.269       .  A
Ni93         O96   1.923       .  S
Ni93         O98   1.898       .  S
C94         O104   1.269       .  A
C94         C523   1.479       .  S
O95        Ni111   1.905       .  S
O95         C101   1.275       .  A
O96         C101   1.279       .  A
C97         C163   1.486       .  S
O98         C100   1.266       .  A
O99        Ni110   1.921       .  S
C100        O106   1.273       .  A
C100        C150   1.494       .  S
C101        C190   1.473       .  S
H102        O103   0.965       .  S
O103       Ni111   1.906       .  S
O103       Ni105   1.896       .  S
O103       Ni110   1.894       .  S
O104       Ni105   1.925       .  S
Ni105       O109   1.907       .  S
Ni105       O107   1.919       .  S
O106       Ni111   1.936       .  S
C108        O109   1.268       .  A
C108        C550   1.483       .  S
O113       Ni119   1.922       .  S
O113        C134   1.269   1_554  A
O114      Ni1493   1.908       .  S
O114        C123   1.267       .  A
O115       Ni119   1.905       .  S
O115       Ni815   1.904   1_545  S
O115      Ni1487   1.914   1_455  S
O115        H138   0.967       .  S
C116        O133   1.279       .  A
C116        O125   1.277       .  A
C116        C330   1.477       .  S
O117       Ni136   1.929       .  S
O117        C123   1.271       .  A
O118       Ni136   1.905   1_556  S
O118       C1476   1.268       .  A
Ni119       O122   1.928       .  S
Ni119       O124   1.891       .  S
C120        O130   1.272       .  A
C120       O1474   1.268   1_455  A
C120        C363   1.496       .  S
O121       Ni815   1.911   1_545  S
O121        C127   1.273       .  A
O122        C127   1.276       .  A
C123        C210   1.486       .  S
O124       C1482   1.264   1_455  A
O125       Ni136   1.916   1_556  S
C126        O132   1.273       .  A
C126       O1480   1.264       .  A
C126        C250   1.483       .  S
C127        C230   1.472       .  S
H128        O129   0.966       .  S
O129       Ni136   1.901       .  S
O129      Ni1493   1.906       .  S
O129       Ni809   1.905       .  S
O130      Ni2165   1.929   1_456  S
Ni131      O2164   1.922   1_544  S
Ni131      O1491   1.912   1_554  S
Ni131       O811   1.929   1_544  S
Ni131      O1471   1.915       .  S
Ni131       O807   1.903   1_545  S
O132      Ni2171   1.938   1_545  S
O133       Ni809   1.926   1_556  S
C134        O135   1.267       .  A
C134        C350   1.486       .  S
O135      Ni1487   1.909   1_456  S
Ni137      O1470   1.906   1_455  S
Ni137       O799   1.902       .  S
Ni137      O2166   1.951   1_455  S
Ni137       O793   1.908       .  S
Ni137      O1485   1.903   1_455  S
C139        C140   1.403       .  A
C139        C144   1.399       .  A
C139        F157   1.358       .  S
C140        C145   1.481       .  S
C140        C141   1.407       .  A
C141        C142   1.399       .  A
C141        F146   1.358       .  S
C142        C143   1.406       .  A
C142        F158   1.357       .  S
C143        C144   1.407       .  A
C144        F147   1.355       .  S
C145        C148   1.401       .  A
C145        C152   1.405       .  A
C148        C149   1.394       .  A
C148        F153   1.358       .  S
C149        C150   1.415       .  A
C149        F155   1.358       .  S
C150        C151   1.414       .  A
C151        C152   1.405       .  A
C151        F154   1.358       .  S
C152        F156   1.358       .  S
C159        C160   1.404       .  A
C159        C164   1.402       .  A
C159        F177   1.358       .  S
C160        C165   1.476       .  S
C160        C161   1.401       .  A
C161        C162   1.393       .  A
C161       F1522   1.358       .  S
C162        C163   1.411       .  A
C162        F178   1.358       .  S
C163        C164   1.413       .  A
C164        F167   1.358       .  S
C165        C168   1.401       .  A
C165        C172   1.403       .  A
F166       C1517   1.358       .  S
C168        C169   1.392       .  A
C168        F173   1.359       .  S
C169        C170   1.407       .  A
C169        F175   1.352       .  S
C170       C1442   1.495       .  S
C170       C1527   1.412       .  A
C171       C1526   1.412       .  A
C171       C1528   1.403       .  A
C171        F174   1.357   1_655  S
C172       C1527   1.403       .  A
C172        F176   1.357       .  S
C179        C180   1.407       .  A
C179        C184   1.397       .  A
C179        F197   1.358       .  S
C180        C185   1.475       .  S
C180        C181   1.406       .  A
C181        C182   1.391       .  A
C181        F186   1.358       .  S
C182        C183   1.398       .  A
C182        F876   1.357   1_545  S
C183       C1441   1.467       .  S
C183        C184   1.402       .  A
C184       F1543   1.358       .  S
C185        C188   1.404       .  A
C185        C192   1.406       .  A
F187       C1540   1.358   1_455  S
C188        C189   1.396       .  A
C188        F193   1.358       .  S
C189        C190   1.409       .  A
C189        F195   1.358       .  S
C190        C191   1.406       .  A
C191        C192   1.393       .  A
C191        F194   1.358       .  S
C192        F196   1.359       .  S
F198        C860   1.356       .  S
C199        C200   1.407       .  A
C199        C204   1.399       .  A
C199        F217   1.358       .  S
C200        C205   1.483       .  S
C200        C201   1.408       .  A
C201        C202   1.399       .  A
C201        F206   1.358       .  S
C202        C203   1.402       .  A
C202        F218   1.357       .  S
C203        C204   1.403       .  A
C204        F207   1.357       .  S
C205        C208   1.405       .  A
C205        C212   1.405       .  A
C208        C209   1.397       .  A
C208        F213   1.358       .  S
C209        C210   1.411       .  A
C209       F1571   1.358       .  S
C210        C211   1.410       .  A
C211        C212   1.400       .  A
C211        F214   1.358       .  S
C212        F216   1.358       .  S
F215       C1565   1.358       .  S
C219        C220   1.403       .  A
C219        C224   1.395       .  A
C219        F237   1.358       .  S
C220        C225   1.476       .  S
C220        C221   1.403       .  A
C221        C222   1.400       .  A
C221        F226   1.358       .  S
C222        C223   1.410       .  A
C222        F238   1.357       .  S
C223        C224   1.405       .  A
C224        F227   1.357       .  S
C225        C228   1.405       .  A
C225        C232   1.404       .  A
C228        C229   1.401       .  A
C228        F233   1.357       .  S
C229        C230   1.405       .  A
C229        F235   1.358       .  S
C230        C231   1.406       .  A
C231        C232   1.396       .  A
C231        F234   1.358       .  S
C232        F236   1.358       .  S
C239        C240   1.403       .  A
C239        C244   1.397       .  A
C239        F257   1.358       .  S
C240        C245   1.469       .  S
C240        C241   1.402       .  A
C241        C242   1.397       .  A
C241        F246   1.358       .  S
C242        C243   1.405       .  A
C242        F258   1.358       .  S
C243        C244   1.404       .  A
C244        F247   1.358       .  S
C245        C248   1.401       .  A
C245        C252   1.399       .  A
C248        C249   1.400       .  A
C248        F253   1.358       .  S
C249        C250   1.412       .  A
C249        F255   1.358       .  S
C250        C251   1.412       .  A
C251        C252   1.394       .  A
C251       F1610   1.358       .  S
C252        F256   1.358       .  S
F254       C1607   1.358       .  S
C259        C260   1.409       .  A
C259        C264   1.400       .  A
C259        F277   1.358       .  S
C260        C265   1.492       .  S
C260        C261   1.410       .  A
C261        C262   1.401       .  A
C261        F266   1.357       .  S
C262        C263   1.402       .  A
C262        F278   1.356       .  S
C263        C264   1.408       .  A
C264        F267   1.358       .  S
C265        C268   1.410       .  A
C265        C272   1.409       .  A
C268        C269   1.402       .  A
C268        F273   1.358       .  S
C269        C270   1.403       .  A
C269       F1631   1.357       .  S
C270       C1438   1.486       .  S
C270        C271   1.404       .  A
C271        C272   1.401       .  A
C271        F274   1.357   1_545  S
C272        F276   1.358       .  S
F275       C1625   1.357   1_455  S
C279        C280   1.405       .  A
C279        C284   1.398       .  A
C279        F297   1.358       .  S
C280        C285   1.478       .  S
C280        C281   1.404       .  A
C281        C282   1.399       .  A
C281        F286   1.358       .  S
C282        C283   1.409       .  A
C282        F298   1.358       .  S
C283        C284   1.406       .  A
C284        F287   1.357       .  S
C285        C288   1.404       .  A
C285        C292   1.406       .  A
C288        C289   1.398       .  A
C288        F293   1.358       .  S
C289        C290   1.407       .  A
C289        F295   1.358       .  S
C290        C291   1.402       .  A
C291        C292   1.398       .  A
C291        F294   1.355   1_545  S
C292        F296   1.358       .  S
C299        C300   1.407       .  A
C299        C304   1.400       .  A
C299        F317   1.358       .  S
C300        C305   1.494       .  S
C300        C301   1.407       .  A
C301        C302   1.401       .  A
C301        F306   1.358       .  S
C302        C303   1.414       .  A
C302        F318   1.357       .  S
C303       C1439   1.506       .  S
C303        C304   1.408       .  A
C304       F1663   1.352       .  S
C305        C308   1.411       .  A
C305        C312   1.410       .  A
F307       C1660   1.352   1_455  S
C308        C309   1.400       .  A
C308        F313   1.358       .  S
C309        C310   1.401       .  A
C309        F315   1.357       .  S
C310        C311   1.404       .  A
C311        C312   1.402       .  A
C311        F314   1.358       .  S
C312        F316   1.357       .  S
C319        C320   1.409       .  A
C319        C324   1.397       .  A
C319        F337   1.358       .  S
C320        C325   1.484       .  S
C320        C321   1.407       .  A
C321        C322   1.400       .  A
C321        F326   1.357       .  S
C322        C323   1.405       .  A
C322        F338   1.358       .  S
C323        C324   1.401       .  A
C324        F327   1.358       .  S
C325        C328   1.408       .  A
C325        C332   1.405       .  A
C328        C329   1.402       .  A
C328        F333   1.358       .  S
C329        C330   1.407       .  A
C329        F335   1.358       .  S
C330        C331   1.407       .  A
C331        C332   1.394       .  A
C331        F334   1.358       .  S
C332        F336   1.358       .  S
C339        C340   1.405       .  A
C339        C344   1.394       .  A
C339        F357   1.358       .  S
C340        C345   1.476       .  S
C340        C341   1.405       .  A
C341        C342   1.399       .  A
C341        F346   1.358       .  S
C342        C343   1.406       .  A
C342        F358   1.357       .  S
C343        C344   1.402       .  A
C344        F347   1.357       .  S
C345        C348   1.405       .  A
C345        C352   1.400       .  A
C348        C349   1.404       .  A
C348        F353   1.358       .  S
C349        C350   1.413       .  A
C349       F1711   1.358       .  S
C350        C351   1.413       .  A
C351        C352   1.389       .  A
C351        F354   1.358       .  S
C352        F356   1.359       .  S
F355       C1705   1.358       .  S
C359        C360   1.403       .  A
C359        C364   1.401       .  A
C359        F377   1.358       .  S
C360        C365   1.484       .  S
C360        C361   1.404       .  A
C361        C362   1.402       .  A
C361        F366   1.358       .  S
C362        C363   1.413       .  A
C362        F378   1.358       .  S
C363        C364   1.415       .  A
C364        F367   1.358   1_455  S
C365        C368   1.406       .  A
C365        C372   1.404       .  A
C368        C369   1.403       .  A
C368        F373   1.358       .  S
C369        C370   1.408       .  A
C369        F375   1.357       .  S
C370        C371   1.407       .  A
C371        C372   1.401       .  A
C371        F374   1.357       .  S
C372        F376   1.358       .  S
C379        C380   1.407       .  A
C379       C1740   1.402       .  A
C379       F1753   1.358   1_455  S
C380        C385   1.485       .  S
C380        C381   1.406       .  A
C381        C382   1.398       .  A
C381        F386   1.358       .  S
C382        C383   1.405       .  A
C382       F1076   1.357       .  S
C383       C1410   1.483       .  S
C383       C1740   1.404       .  A
C384       C1735   1.404       .  A
C384       C1739   1.405       .  A
C384        F387   1.357       .  S
C385        C388   1.408       .  A
C385        C392   1.405       .  A
C388        C389   1.403       .  A
C388        F393   1.358       .  S
C389        C390   1.405       .  A
C389        F395   1.358       .  S
C390        C391   1.406       .  A
C391        C392   1.397       .  A
C391        F394   1.358       .  S
C392        F396   1.358       .  S
F397       C1735   1.358       .  S
F398       C1060   1.358   1_545  S
C399        C400   1.410       .  A
C399        C404   1.403       .  A
C399        F417   1.358       .  S
C400        C405   1.489       .  S
C400        C401   1.407       .  A
C401       C1758   1.398       .  A
C401       F1762   1.357       .  S
C402       C1757   1.399       .  A
C402       C1759   1.406       .  A
C402        F418   1.357       .  S
C403       C1411   1.485       .  S
C403        C404   1.404       .  A
C403       C1758   1.405       .  A
C404        F407   1.358       .  S
C405        C408   1.409       .  A
C405        C412   1.407       .  A
F406       C1757   1.358       .  S
C408        C409   1.403       .  A
C408        F413   1.358       .  S
C409        C410   1.403       .  A
C409        F415   1.358       .  S
C410        C411   1.406       .  A
C411        C412   1.400       .  A
C411        F414   1.358       .  S
C412        F416   1.358       .  S
C419        C420   1.410       .  A
C419        C424   1.404       .  A
C419        F437   1.358       .  S
C420        C425   1.494       .  S
C420        C421   1.408       .  A
C421        C422   1.402       .  A
C421        F426   1.358       .  S
C422        C423   1.408       .  A
C422        F438   1.357       .  S
C423        C424   1.405       .  A
C424        F427   1.358       .  S
C425        C428   1.410       .  A
C425        C432   1.410       .  A
C428        C429   1.402       .  A
C428        F433   1.357       .  S
C429        C430   1.403       .  A
C429       F1113   1.358       .  S
C430        C431   1.406       .  A
C431        C432   1.402       .  A
C431        F434   1.358       .  S
C432        F436   1.358       .  S
F435       C1107   1.357   1_545  S
C439        C440   1.404       .  A
C439        C444   1.398       .  A
C439        F457   1.358       .  S
C440        C445   1.473       .  S
C440        C441   1.402       .  A
C441        C442   1.397       .  A
C441        F446   1.358       .  S
C442        C443   1.405       .  A
C442       F1136   1.357       .  S
C443        C444   1.406       .  A
C444        F447   1.357       .  S
C445        C448   1.399       .  A
C445        C452   1.402       .  A
C448        C449   1.395       .  A
C448        F453   1.358       .  S
C449        C450   1.415       .  A
C449        F455   1.358       .  S
C450        C451   1.413       .  A
C451        C452   1.401       .  A
C451        F454   1.358       .  S
C452        F456   1.358       .  S
F458       C1120   1.357       .  S
C459        C460   1.403       .  A
C459        C464   1.393       .  A
C459        F477   1.358       .  S
C460        C465   1.488       .  S
C460        C461   1.409       .  A
C461        C462   1.406       .  A
C461        F466   1.358       .  S
C462        C463   1.411       .  A
C462        F478   1.358       .  S
C463        C464   1.413       .  A
C464        F467   1.358       .  S
C465        C468   1.408       .  A
C465        C472   1.408       .  A
C468        C469   1.402       .  A
C468        F473   1.357       .  S
C469        C470   1.405       .  A
C469        F475   1.357       .  S
C470       C1408   1.484       .  S
C470       C1827   1.403   1_455  A
C471       C1826   1.401       .  A
C471       C1828   1.394       .  A
C471        F474   1.356       .  S
C472       C1827   1.398   1_455  A
C472       F1832   1.358   1_455  S
F476       C1828   1.358       .  S
C479        C480   1.405       .  A
C479        C484   1.395       .  A
C479        F497   1.358       .  S
C480        C485   1.486       .  S
C480        C481   1.408       .  A
C481        C482   1.404       .  A
C481        F486   1.358       .  S
C482        C483   1.410       .  A
C482        F498   1.358       .  S
C483        C484   1.410       .  A
C484        F487   1.358       .  S
C485        C488   1.408       .  A
C485        C492   1.409       .  A
C488        C489   1.401       .  A
C488        F493   1.358       .  S
C489        C490   1.403       .  A
C489       F1851   1.358   1_455  S
C490       C1407   1.478       .  S
C490        C491   1.401       .  A
C491        C492   1.397       .  A
C491        F494   1.358       .  S
C492        F496   1.358       .  S
F495       C1845   1.358       .  S
C499        C500   1.407       .  A
C499        C504   1.396       .  A
C499        F517   1.358       .  S
C500        C505   1.483       .  S
C500        C501   1.407       .  A
C501        C502   1.399       .  A
C501        F506   1.358       .  S
C502        C503   1.407       .  A
C502        F518   1.358       .  S
C503        C504   1.406       .  A
C504        F507   1.358       .  S
C505        C508   1.406       .  A
C505        C512   1.407       .  A
C508        C509   1.400       .  A
C508        F513   1.358       .  S
C509        C510   1.406       .  A
C509        F515   1.356       .  S
C510        C511   1.401       .  A
C511        C512   1.396       .  A
C511        F514   1.355       .  S
C512        F516   1.358       .  S
C519        C520   1.408       .  A
C519       C1880   1.405       .  A
C519        F537   1.358       .  S
C520        C525   1.489   1_655  S
C520       C1877   1.408       .  A
C521        C522   1.396       .  A
C521       C1876   1.406       .  A
C521        F526   1.358       .  S
C522        C523   1.406       .  A
C522        F538   1.358       .  S
C523        C524   1.408       .  A
C524       C1875   1.403       .  A
C524        F527   1.358       .  S
C525        C528   1.403       .  A
C525        C532   1.408       .  A
C528        C529   1.393       .  A
C528        F533   1.358       .  S
C529        C530   1.410       .  A
C529        F535   1.353       .  S
C530        C531   1.413       .  A
C531        C532   1.406       .  A
C531        F534   1.357       .  S
C532       F1892   1.357       .  S
F536       C1888   1.357       .  S
C539        C540   1.400       .  A
C539        C544   1.393       .  A
C539        F557   1.358       .  S
C540        C545   1.462       .  S
C540        C541   1.403       .  A
C541        C542   1.394       .  A
C541        F546   1.358       .  S
C542        C543   1.401       .  A
C542        F558   1.357       .  S
C543        C544   1.403       .  A
C544        F547   1.357       .  S
C545       C1226   1.400       .  A
C545       C1230   1.398       .  A
C548        C549   1.399       .  A
C548       C1223   1.402       .  A
C548        F553   1.358       .  S
C549        C550   1.412       .  A
C549        F555   1.358       .  S
C550        C551   1.413       .  A
C551        C552   1.393       .  A
C551        F554   1.358       .  S
C552       C1223   1.400       .  A
C552       F1234   1.358   1_545  S
F556       C1230   1.359       .  S
C559        C560   1.400       .  A
C559        C564   1.397       .  A
C559        F577   1.358       .  S
C560        C565   1.476       .  S
C560        C561   1.402       .  A
C561        C562   1.401       .  A
C561        F566   1.358       .  S
C562        C563   1.413       .  A
C562        F578   1.358       .  S
C563        C564   1.414       .  A
C564        F567   1.358       .  S
C565        C568   1.404       .  A
C565        C572   1.401       .  A
C568        C569   1.401       .  A
C568        F573   1.358       .  S
C569        C570   1.409       .  A
C569        F575   1.357       .  S
C570        C571   1.407       .  A
C571        C572   1.397       .  A
C571        F574   1.355       .  S
C572        F576   1.358       .  S
C579        C580   1.405       .  A
C579        C584   1.401       .  A
C579        F597   1.358       .  S
C580        C585   1.480       .  S
C580        C581   1.406       .  A
C581        C582   1.398       .  A
C581        F586   1.357       .  S
C582        C583   1.401       .  A
C582        F598   1.358       .  S
C583        C584   1.406       .  A
C584        F587   1.357       .  S
C585        C588   1.404       .  A
C585       C1948   1.404       .  A
C588       C1945   1.400       .  A
C588        F593   1.358       .  S
C589        C590   1.407       .  A
C589       C1944   1.399   1_455  A
C589        F595   1.358       .  S
C590        C591   1.407       .  A
C591        C592   1.400       .  A
C591        F594   1.358       .  S
C592       C1941   1.405       .  A
C592        F596   1.358       .  S
C599        C600   1.404       .  A
C599        C604   1.398       .  A
C599        F617   1.358       .  S
C600        C605   1.473       .  S
C600        C601   1.405       .  A
C601        C602   1.394       .  A
C601        F606   1.358       .  S
C602        C603   1.403       .  A
C602        F618   1.358       .  S
C603        C604   1.406       .  A
C604        F607   1.358       .  S
C605        C608   1.400       .  A
C605       C1290   1.403   1_545  A
C608       C1287   1.393   1_545  A
C608        F613   1.358       .  S
C609        C610   1.412       .  A
C609       C1286   1.394       .  A
C609        F615   1.358       .  S
C610        C611   1.412       .  A
C611        C612   1.402       .  A
C611        F614   1.358       .  S
C612       C1283   1.403       .  A
C612        F616   1.358       .  S
C619        C620   1.406       .  A
C619        C624   1.393       .  A
C619        F637   1.358       .  S
C620        C625   1.482       .  S
C620        C621   1.409       .  A
C621        C622   1.399       .  A
C621        F626   1.358       .  S
C622        C623   1.404       .  A
C622        F638   1.358       .  S
C623        C624   1.405       .  A
C624        F627   1.358       .  S
C625        C628   1.408       .  A
C625        C632   1.408       .  A
C628        C629   1.396       .  A
C628        F633   1.358       .  S
C629        C630   1.401       .  A
C629        F635   1.357       .  S
C630        C631   1.401       .  A
C631        C632   1.396       .  A
C631        F634   1.356       .  S
C632        F636   1.358       .  S
C639        C640   1.410       .  A
C639        C644   1.403       .  A
C639        F657   1.358       .  S
C640       C1323   1.490       .  S
C640        C641   1.407       .  A
C641        C642   1.400       .  A
C641       F1324   1.358       .  S
C642        C643   1.405       .  A
C642        F658   1.356       .  S
C643        C644   1.403       .  A
C644        F647   1.356       .  S
C645       C1318   1.494   1_545  S
C645        C648   1.411       .  A
C645        C652   1.407       .  A
F646       C1319   1.358       .  S
C648        C649   1.404       .  A
C648        F653   1.358       .  S
C649        C650   1.405       .  A
C649        F655   1.356       .  S
C650        C651   1.409       .  A
C651        C652   1.398       .  A
C651        F654   1.357       .  S
C652        F656   1.358       .  S
C659        C660   1.410       .  A
C659        C664   1.399       .  A
C659        F677   1.358       .  S
C660       C2021   1.484       .  S
C660        C661   1.408       .  A
C661        C662   1.395       .  A
C661       F2022   1.358       .  S
C662        C663   1.400       .  A
C662        F678   1.357       .  S
C663        C664   1.401       .  A
C664        F667   1.357       .  S
C665       C2016   1.482   1_455  S
C665        C668   1.406       .  A
C665        C672   1.405       .  A
F666       C2017   1.358       .  S
C668        C669   1.393       .  A
C668        F673   1.358   1_455  S
C669        C670   1.407       .  A
C669        F675   1.357       .  S
C670        C671   1.409       .  A
C671        C672   1.397       .  A
C671        F674   1.354       .  S
C672        F676   1.358       .  S
C679        H680   1.110       .  S
C679        C685   1.544       .  S
C679        C684   1.539       .  S
C679        C683   1.536       .  S
C681        H682   1.112       .  S
C681        C687   1.533       .  S
C681        C686   1.525       .  S
C681        C688   1.529       .  S
C683        C686   1.366       .  D
C683       C1341   1.468       .  S
C684        C687   1.377       .  D
C684       C1301   1.489       .  S
C685        C688   1.376       .  D
C685       C1328   1.490       .  S
C686       C1261   1.474       .  S
C687       C1248   1.479       .  S
C688       C1281   1.480       .  S
C689        H690   1.109       .  S
C689        C695   1.539       .  S
C689        C694   1.535       .  S
C689        C693   1.525       .  S
C691        H692   1.109       .  S
C691        C697   1.537       .  S
C691        C696   1.543       .  S
C691        C698   1.552       .  S
C693        C696   1.365       .  D
C693       C1188   1.477       .  S
C694        C697   1.366       .  D
C694       C1221   1.475       .  S
C695        C698   1.391       .  D
C695       C1208   1.504       .  S
C696       C1308   1.479       .  S
C697       C1321   1.486       .  S
C698       C1348   1.496       .  S
O699       Ni705   1.918       .  S
O699        C720   1.268       .  A
O700       Ni723   1.907       .  S
O700        C709   1.266       .  A
O701       Ni705   1.899       .  S
O701       Ni723   1.905       .  S
O701       Ni717   1.911       .  S
O701        H724   0.963       .  S
C702        O719   1.278       .  A
C702        O711   1.276       .  A
C702       C1161   1.485       .  S
O703       Ni722   1.923       .  S
O703        C709   1.268       .  A
O704       Ni722   1.902       .  S
O704        C706   1.267       .  A
Ni705       O708   1.917       .  S
Ni705       O710   1.896       .  S
C706        O716   1.271       .  A
C706       C1128   1.488       .  S
O707       Ni723   1.917       .  S
O707        C713   1.276       .  A
O708        C713   1.276       .  A
C709       C1288   1.486       .  S
O710        C712   1.266       .  A
O711       Ni722   1.915       .  S
C712        O718   1.268       .  A
C712       C1268   1.478       .  S
C713       C1241   1.486       .  S
H714        O715   0.968       .  S
O715       Ni723   1.916       .  S
O715       Ni717   1.909       .  S
O715       Ni722   1.901       .  S
O716       Ni717   1.924       .  S
Ni717       O721   1.917       .  S
Ni717       O719   1.928       .  S
O718       Ni723   1.924       .  S
C720        O721   1.270       .  A
C720       C1141   1.484       .  S
C725        H726   1.112       .  S
C725        C730   1.532       .  S
C727        H728   1.111       .  S
C727        C733   1.547       .  S
C729        C732   1.371       .  D
C729       C2524   1.482       .  S
C730        C733   1.376       .  D
C730       C2504   1.490       .  S
C731        C734   1.374       .  D
C731       C1121   1.477       .  S
C732       C2417   1.479       .  S
C733       C2437   1.486       .  S
C734       C1108   1.484       .  S
C735        H736   1.111       .  S
C735        C741   1.545       .  S
C735        C740   1.542       .  S
C735        C739   1.544       .  S
C737        H738   1.112       .  S
C737        C743   1.529       .  S
C737        C742   1.527       .  S
C737        C744   1.529       .  S
C739        C742   1.371       .  D
C739       C1088   1.488       .  S
C740        C743   1.373       .  D
C740       C1101   1.483       .  S
C741        C744   1.376       .  D
C741       C1068   1.489       .  S
C742       C1021   1.476       .  S
C743       C1001   1.479       .  S
C744       C1048   1.481       .  S
C745        H746   1.111       .  S
C745        C751   1.537       .  S
C745        C750   1.535       .  S
C745        C749   1.545       .  S
C747        H748   1.112       .  S
C747        C753   1.533       .  S
C747        C752   1.529       .  S
C747        C754   1.532       .  S
C749        C752   1.375       .  D
C749        C941   1.485       .  S
C750        C753   1.373       .  D
C750        C961   1.481       .  S
C751        C754   1.371       .  D
C751        C988   1.477       .  S
C752        C921   1.484       .  S
C753        C901   1.478       .  S
C754        C881   1.478       .  S
C755        H756   1.109       .  S
C755        C761   1.553   1_455  S
C757        H758   1.109       .  S
C757        C764   1.534   1_545  S
C759        C762   1.371       .  D
C759        C968   1.481       .  S
C760        C763   1.367       .  D
C760       C2304   1.485       .  S
C761        C764   1.384   1_655  D
C761       C2337   1.498       .  S
C762        C821   1.486       .  S
C763       C2217   1.471       .  S
C764       C2204   1.498   1_455  S
O765       Ni771   1.920       .  S
O765        C786   1.268       .  A
O766       Ni789   1.910       .  S
O766        C775   1.270       .  A
O767       Ni771   1.898       .  S
O767       Ni789   1.902       .  S
O767       Ni783   1.912       .  S
O767        H790   0.968       .  S
C768        O785   1.278       .  A
C768        O777   1.278       .  A
C768       C1181   1.483       .  S
O769       Ni788   1.931       .  S
O769        C775   1.274       .  A
O770       Ni788   1.917       .  S
O770        C772   1.269       .  A
Ni771       O774   1.919       .  S
Ni771       O776   1.901       .  S
C772        O782   1.268       .  A
C772       C1201   1.481       .  S
O773       Ni789   1.912       .  S
O773        C779   1.275       .  A
O774        C779   1.277       .  A
C775        C841   1.485       .  S
O776        C778   1.267       .  A
O777       Ni788   1.919       .  S
C778        O784   1.274       .  A
C778        C828   1.494       .  S
C779        C868   1.472       .  S
H780        O781   0.965       .  S
O781       Ni789   1.904       .  S
O781       Ni783   1.895       .  S
O781       Ni788   1.896       .  S
O782       Ni783   1.921       .  S
Ni783       O787   1.903       .  S
Ni783       O785   1.919       .  S
O784       Ni789   1.934       .  S
C786        O787   1.265       .  A
C786       C1228   1.477       .  S
O791       Ni797   1.920       .  S
O791        C812   1.270   1_554  A
O792      Ni2171   1.903       .  S
O792        C801   1.266       .  A
O793       Ni797   1.906       .  S
O793      Ni2165   1.914   1_455  S
O793        H816   0.967       .  S
C794        O811   1.279       .  A
C794        O803   1.276       .  A
C794       C1008   1.479       .  S
O795       Ni814   1.927       .  S
O795        C801   1.270       .  A
O796       Ni814   1.911   1_556  S
O796       C2154   1.269       .  A
Ni797       O800   1.928       .  S
Ni797       O802   1.894       .  S
C798       O2152   1.269       .  A
C798        O808   1.270   1_655  A
C798       C1041   1.483   1_655  S
O799        C805   1.269       .  A
O800        C805   1.274       .  A
C801        C888   1.486       .  S
O802       C2160   1.265       .  A
O803       Ni814   1.917   1_556  S
C804       O2158   1.266       .  A
C804        O810   1.274       .  A
C804        C928   1.484       .  S
C805        C908   1.464       .  S
H806        O807   0.966       .  S
O807      Ni2171   1.909       .  S
O807       Ni814   1.903       .  S
O808      Ni1487   1.921   1_466  S
Ni809      O1486   1.927   1_554  S
Ni809      O2169   1.912   1_554  S
Ni809      O2149   1.913       .  S
O810      Ni1493   1.940       .  S
C812        O813   1.269       .  A
C812       C1028   1.480       .  S
O813      Ni2165   1.909   1_456  S
Ni815      O2148   1.903   1_455  S
Ni815      O1488   1.930   1_465  S
Ni815      O2163   1.910   1_455  S
C817        C818   1.406       .  A
C817        C822   1.401       .  A
C817        F835   1.358       .  S
C818        C823   1.486       .  S
C818        C819   1.408       .  A
C819        C820   1.399       .  A
C819        F824   1.358       .  S
C820        C821   1.404       .  A
C820        F836   1.357       .  S
C821        C822   1.406       .  A
C822        F825   1.355       .  S
C823        C826   1.403       .  A
C823        C830   1.406       .  A
C826        C827   1.397       .  A
C826        F831   1.358       .  S
C827        C828   1.415       .  A
C827        F833   1.358       .  S
C828        C829   1.413       .  A
C829        C830   1.403       .  A
C829        F832   1.358       .  S
C830        F834   1.358       .  S
C837        C838   1.404       .  A
C837        C842   1.402       .  A
C837        F855   1.358       .  S
C838        C843   1.479       .  S
C838        C839   1.402       .  A
C839        C840   1.396       .  A
C839       F2200   1.358       .  S
C840        C841   1.410       .  A
C840        F856   1.358       .  S
C841        C842   1.411       .  A
C842        F845   1.358       .  S
C843        C846   1.402       .  A
C843        C850   1.402       .  A
F844       C2195   1.358   1_455  S
C846        C847   1.395       .  A
C846        F851   1.358       .  S
C847        C848   1.410       .  A
C847        F853   1.355       .  S
C848       C2120   1.502       .  S
C848       C2205   1.414       .  A
C849       C2204   1.414   1_455  A
C849       C2206   1.402   1_455  A
C849        F852   1.357       .  S
C850       C2205   1.403       .  A
C850        F854   1.357       .  S
C857        C858   1.405       .  A
C857        C862   1.398       .  A
C857        F875   1.358       .  S
C858        C863   1.472       .  S
C858        C859   1.404       .  A
C859        C860   1.393       .  A
C859        F864   1.358       .  S
C860        C861   1.400       .  A
C861       C2119   1.472       .  S
C861        C862   1.403       .  A
C862       F2221   1.358       .  S
C863        C866   1.403       .  A
C863        C870   1.404       .  A
F865       C2218   1.357   1_455  S
C866        C867   1.398       .  A
C866        F871   1.358       .  S
C867        C868   1.408       .  A
C867        F873   1.358       .  S
C868        C869   1.406       .  A
C869        C870   1.395       .  A
C869        F872   1.358       .  S
C870        F874   1.358       .  S
C877        C878   1.403       .  A
C877        C882   1.395       .  A
C877        F895   1.358       .  S
C878        C883   1.475       .  S
C878        C879   1.405       .  A
C879        C880   1.399       .  A
C879        F884   1.358       .  S
C880        C881   1.405       .  A
C880        F896   1.356       .  S
C881        C882   1.403       .  A
C882        F885   1.356       .  S
C883        C886   1.402       .  A
C883        C890   1.402       .  A
C886        C887   1.395       .  A
C886        F891   1.358       .  S
C887        C888   1.412       .  A
C887       F2249   1.358       .  S
C888        C889   1.413       .  A
C889        C890   1.399       .  A
C889        F892   1.358       .  S
C890        F894   1.358       .  S
F893       C2243   1.358       .  S
C897        C898   1.404       .  A
C897        C902   1.396       .  A
C897        F915   1.358       .  S
C898        C903   1.472       .  S
C898        C899   1.403       .  A
C899        C900   1.397       .  A
C899        F904   1.358       .  S
C900        C901   1.406       .  A
C900        F916   1.358       .  S
C901        C902   1.403       .  A
C902        F905   1.357       .  S
C903        C906   1.405       .  A
C903        C910   1.404       .  A
C906        C907   1.397       .  A
C906        F911   1.358       .  S
C907        C908   1.402       .  A
C907        F913   1.358       .  S
C908        C909   1.404       .  A
C909        C910   1.396       .  A
C909        F912   1.359       .  S
C910        F914   1.358       .  S
C917        C918   1.404       .  A
C917        C922   1.400       .  A
C917        F935   1.358       .  S
C918        C923   1.477       .  S
C918        C919   1.403       .  A
C919        C920   1.400       .  A
C919        F924   1.358       .  S
C920        C921   1.406       .  A
C920        F936   1.358       .  S
C921        C922   1.406       .  A
C922        F925   1.358       .  S
C923        C926   1.403       .  A
C923        C930   1.402       .  A
C926        C927   1.402       .  A
C926        F931   1.358       .  S
C927        C928   1.410       .  A
C927        F933   1.358       .  S
C928        C929   1.411       .  A
C929        C930   1.398       .  A
C929       F2288   1.358       .  S
C930        F934   1.358       .  S
F932       C2285   1.358   1_455  S
C937        C938   1.407       .  A
C937        C942   1.398       .  A
C937        F955   1.358       .  S
C938        C943   1.489       .  S
C938        C939   1.409       .  A
C939        C940   1.402       .  A
C939        F944   1.358       .  S
C940        C941   1.403       .  A
C940        F956   1.357       .  S
C941        C942   1.406       .  A
C942        F945   1.358       .  S
C943        C946   1.409       .  A
C943        C950   1.407       .  A
C946        C947   1.403       .  A
C946        F951   1.358       .  S
C947        C948   1.404       .  A
C947       F2309   1.357       .  S
C948       C2116   1.485       .  S
C948        C949   1.403       .  A
C949        C950   1.398       .  A
C949        F952   1.356       .  S
C950        F954   1.358       .  S
F953       C2303   1.357       .  S
C957        C958   1.407       .  A
C957        C962   1.399       .  A
C957        F975   1.358       .  S
C958        C963   1.478       .  S
C958        C959   1.404       .  A
C959        C960   1.396       .  A
C959        F964   1.358       .  S
C960        C961   1.407       .  A
C960        F976   1.357       .  S
C961        C962   1.403       .  A
C962        F965   1.358       .  S
C963        C966   1.405       .  A
C963        C970   1.405       .  A
C966        C967   1.398       .  A
C966        F971   1.358       .  S
C967        C968   1.407       .  A
C967        F973   1.358       .  S
C968        C969   1.402       .  A
C969        C970   1.397       .  A
C969        F972   1.354       .  S
C970        F974   1.358       .  S
C977        C978   1.406       .  A
C977        C982   1.399       .  A
C977        F995   1.358       .  S
C978        C983   1.489       .  S
C978        C979   1.406       .  A
C979        C980   1.399       .  A
C979        F984   1.358       .  S
C980        C981   1.414       .  A
C980        F996   1.358       .  S
C981       C2117   1.503       .  S
C981        C982   1.409       .  A
C982       F2341   1.353       .  S
C983        C986   1.411       .  A
C983        C990   1.408       .  A
F985       C2338   1.353   1_455  S
C986        C987   1.399       .  A
C986        F991   1.358       .  S
C987        C988   1.400       .  A
C987        F993   1.357       .  S
C988        C989   1.403       .  A
C989        C990   1.398       .  A
C989        F992   1.357       .  S
C990        F994   1.358       .  S
C997        C998   1.408       .  A
C997       C1002   1.396       .  A
C997       F1015   1.358       .  S
C998       C1003   1.483       .  S
C998        C999   1.407       .  A
C999       C1000   1.400       .  A
C999       F1004   1.357       .  S
C1000      C1001   1.405       .  A
C1000      F1016   1.358       .  S
C1001      C1002   1.402       .  A
C1002      F1005   1.358       .  S
C1003      C1006   1.407       .  A
C1003      C1010   1.406       .  A
C1006      C1007   1.401       .  A
C1006      F1011   1.358       .  S
C1007      C1008   1.407       .  A
C1007      F1013   1.358       .  S
C1008      C1009   1.407       .  A
C1009      C1010   1.397       .  A
C1009      F1012   1.358       .  S
C1010      F1014   1.358       .  S
C1017      C1018   1.403       .  A
C1017      C1022   1.396       .  A
C1017      F1035   1.358       .  S
C1018      C1023   1.468       .  S
C1018      C1019   1.402       .  A
C1019      C1020   1.397       .  A
C1019      F1024   1.358       .  S
C1020      C1021   1.406       .  A
C1020      F1036   1.358       .  S
C1021      C1022   1.402       .  A
C1022      F1025   1.358       .  S
C1023      C1026   1.404       .  A
C1023      C1030   1.397       .  A
C1026      C1027   1.404       .  A
C1026      F1031   1.358       .  S
C1027      C1028   1.410       .  A
C1027      F2389   1.358       .  S
C1028      C1029   1.411       .  A
C1029      C1030   1.389       .  A
C1029      F1032   1.358       .  S
C1030      F1034   1.358       .  S
F1033      C2383   1.357       .  S
C1037      C1038   1.401       .  A
C1037      C1042   1.397       .  A
C1037      F1055   1.358       .  S
C1038      C1043   1.473       .  S
C1038      C1039   1.402       .  A
C1039      C1040   1.401       .  A
C1039      F1044   1.358       .  S
C1040      C1041   1.412       .  A
C1040      F1056   1.358       .  S
C1041      C1042   1.410       .  A
C1042      F1045   1.358       .  S
C1043      C1046   1.403       .  A
C1043      C1050   1.403       .  A
C1046      C1047   1.398       .  A
C1046      F1051   1.358       .  S
C1047      C1048   1.405       .  A
C1047      F1053   1.358       .  S
C1048      C1049   1.406       .  A
C1049      C1050   1.399       .  A
C1049      F1052   1.358       .  S
C1050      F1054   1.358       .  S
C1057      C1058   1.406       .  A
C1057      C2418   1.400       .  A
C1057      F2431   1.358   1_455  S
C1058      C1063   1.478       .  S
C1058      C1059   1.405       .  A
C1059      C1060   1.398       .  A
C1059      F1064   1.358       .  S
C1060      C1061   1.406       .  A
C1061      C2088   1.480       .  S
C1061      C2418   1.403       .  A
C1062      C2413   1.401       .  A
C1062      C2417   1.404       .  A
C1062      F1065   1.358       .  S
C1063      C1066   1.406       .  A
C1063      C1070   1.402       .  A
C1066      C1067   1.401       .  A
C1066      F1071   1.358       .  S
C1067      C1068   1.406       .  A
C1067      F1073   1.357       .  S
C1068      C1069   1.410       .  A
C1069      C1070   1.397       .  A
C1069      F1072   1.357       .  S
C1070      F1074   1.358       .  S
F1075      C2413   1.358       .  S
C1077      C1078   1.408       .  A
C1077      C1082   1.403       .  A
C1077      F1095   1.358       .  S
C1078      C1083   1.487       .  S
C1078      C1079   1.406       .  A
C1079      C2436   1.399       .  A
C1079      F2440   1.358       .  S
C1080      C2435   1.398       .  A
C1080      C2437   1.408       .  A
C1080      F1096   1.358       .  S
C1081      C2089   1.486       .  S
C1081      C2436   1.406       .  A
C1081      C1082   1.404       .  A
C1082      F1085   1.358       .  S
C1083      C1086   1.408       .  A
C1083      C1090   1.405       .  A
F1084      C2435   1.358       .  S
C1086      C1087   1.403       .  A
C1086      F1091   1.357       .  S
C1087      C1088   1.404       .  A
C1087      F1093   1.357       .  S
C1088      C1089   1.408       .  A
C1089      C1090   1.400       .  A
C1089      F1092   1.358       .  S
C1090      F1094   1.358       .  S
C1097      C1098   1.407       .  A
C1097      C1102   1.401       .  A
C1097      F1115   1.358       .  S
C1098      C1103   1.484       .  S
C1098      C1099   1.406       .  A
C1099      C1100   1.399       .  A
C1099      F1104   1.358       .  S
C1100      C1101   1.406       .  A
C1100      F1116   1.358       .  S
C1101      C1102   1.404       .  A
C1102      F1105   1.358       .  S
C1103      C1106   1.407       .  A
C1103      C1110   1.406       .  A
C1106      C1107   1.401       .  A
C1106      F1111   1.358       .  S
C1107      C1108   1.404       .  A
C1108      C1109   1.406       .  A
C1109      C1110   1.399       .  A
C1109      F1112   1.358       .  S
C1110      F1114   1.358       .  S
C1117      C1118   1.405       .  A
C1117      C1122   1.397       .  A
C1117      F1135   1.358       .  S
C1118      C1123   1.474       .  S
C1118      C1119   1.403       .  A
C1119      C1120   1.397       .  A
C1119      F1124   1.358       .  S
C1120      C1121   1.405       .  A
C1121      C1122   1.404       .  A
C1122      F1125   1.358   1_565  S
C1123      C1126   1.400       .  A
C1123      C1130   1.402       .  A
C1126      C1127   1.395       .  A
C1126      F1131   1.358       .  S
C1127      C1128   1.414       .  A
C1127      F1133   1.358       .  S
C1128      C1129   1.413       .  A
C1129      C1130   1.399       .  A
C1129      F1132   1.358       .  S
C1130      F1134   1.358       .  S
C1137      C1138   1.402       .  A
C1137      C1142   1.393       .  A
C1137      F1155   1.359       .  S
C1138      C1143   1.479       .  S
C1138      C1139   1.405       .  A
C1139      C1140   1.403       .  A
C1139      F1144   1.357       .  S
C1140      C1141   1.409       .  A
C1140      F1156   1.357       .  S
C1141      C1142   1.412       .  A
C1142      F1145   1.358       .  S
C1143      C1146   1.405       .  A
C1143      C1150   1.404       .  A
C1146      C1147   1.401       .  A
C1146      F1151   1.358       .  S
C1147      C1148   1.407       .  A
C1147      F1153   1.357       .  S
C1148      C2086   1.485       .  S
C1148      C2505   1.405   1_455  A
C1149      C2504   1.406       .  A
C1149      C2506   1.397       .  A
C1149      F1152   1.357       .  S
C1150      C2505   1.395   1_455  A
C1150      F2510   1.358   1_455  S
F1154      C2506   1.358       .  S
C1157      C1158   1.406       .  A
C1157      C1162   1.395       .  A
C1157      F1175   1.358       .  S
C1158      C1163   1.489       .  S
C1158      C1159   1.409       .  A
C1159      C1160   1.404       .  A
C1159      F1164   1.358       .  S
C1160      C1161   1.409       .  A
C1160      F1176   1.358       .  S
C1161      C1162   1.409       .  A
C1162      F1165   1.358       .  S
C1163      C1166   1.408       .  A
C1163      C1170   1.410       .  A
C1166      C1167   1.401       .  A
C1166      F1171   1.357       .  S
C1167      C1168   1.404       .  A
C1167      F2529   1.358   1_455  S
C1168      C2085   1.480       .  S
C1168      C1169   1.401       .  A
C1169      C1170   1.398       .  A
C1169      F1172   1.358   1_565  S
C1170      F1174   1.358   1_565  S
F1173      C2523   1.358       .  S
C1177      C1178   1.405       .  A
C1177      C1182   1.394       .  A
C1177      F1195   1.358       .  S
C1178      C1183   1.483       .  S
C1178      C1179   1.406       .  A
C1179      C1180   1.400       .  A
C1179      F1184   1.358       .  S
C1180      C1181   1.410       .  A
C1180      F1196   1.358       .  S
C1181      C1182   1.410       .  A
C1182      F1185   1.358       .  S
C1183      C1186   1.407       .  A
C1183      C1190   1.408       .  A
C1186      C1187   1.400       .  A
C1186      F1191   1.358       .  S
C1187      C1188   1.403       .  A
C1187      F1193   1.357       .  S
C1188      C1189   1.400       .  A
C1189      C1190   1.395       .  A
C1189      F1192   1.355       .  S
C1190      F1194   1.358       .  S
C1197      C1198   1.405       .  A
C1197      C2558   1.403       .  A
C1197      F1215   1.357       .  S
C1198      C1203   1.485   1_655  S
C1198      C2555   1.407       .  A
C1199      C2554   1.407       .  A
C1199      C1200   1.399       .  A
C1199      F1204   1.358       .  S
C1200      C1201   1.406       .  A
C1200      F1216   1.358       .  S
C1201      C1202   1.408       .  A
C1202      C2553   1.403       .  A
C1202      F1205   1.358       .  S
C1203      C1206   1.401       .  A
C1203      C1210   1.406       .  A
C1206      C1207   1.394       .  A
C1206      F1211   1.358       .  S
C1207      C1208   1.412       .  A
C1207      F1213   1.353       .  S
C1208      C1209   1.413       .  A
C1209      C1210   1.406       .  A
C1209      F1212   1.357       .  S
C1210      F2570   1.357       .  S
F1214      C2566   1.357       .  S
C1217      C1218   1.402       .  A
C1217      C1222   1.396       .  A
C1217      F1235   1.358       .  S
C1218      C1223   1.470   1_565  S
C1218      C1219   1.404       .  A
C1219      C1220   1.397       .  A
C1219      F1224   1.358       .  S
C1220      C1221   1.401       .  A
C1220      F1236   1.356       .  S
C1221      C1222   1.404       .  A
C1222      F1225   1.357       .  S
C1226      C1227   1.399       .  A
C1226      F1231   1.358       .  S
C1227      C1228   1.412       .  A
C1227      F1233   1.358       .  S
C1228      C1229   1.411       .  A
C1229      C1230   1.389       .  A
C1229      F1232   1.358       .  S
C1237      C1238   1.396       .  A
C1237      C1242   1.389       .  A
C1237      F1255   1.359       .  S
C1238      C1243   1.467       .  S
C1238      C1239   1.402       .  A
C1239      C1240   1.402       .  A
C1239      F1244   1.358       .  S
C1240      C1241   1.414       .  A
C1240      F1256   1.358       .  S
C1241      C1242   1.414       .  A
C1242      F1245   1.358       .  S
C1243      C1246   1.404       .  A
C1243      C1250   1.400       .  A
C1246      C1247   1.395       .  A
C1246      F1251   1.358       .  S
C1247      C1248   1.406       .  A
C1247      F1253   1.358       .  S
C1248      C1249   1.406       .  A
C1249      C1250   1.394       .  A
C1249      F1252   1.354       .  S
C1250      F1254   1.358       .  S
C1257      C1258   1.405       .  A
C1257      C1262   1.397       .  A
C1257      F1275   1.358       .  S
C1258      C1263   1.478       .  S
C1258      C1259   1.407       .  A
C1259      C1260   1.397       .  A
C1259      F1264   1.358       .  S
C1260      C1261   1.401       .  A
C1260      F1276   1.358       .  S
C1261      C1262   1.403       .  A
C1262      F1265   1.357       .  S
C1263      C1266   1.404       .  A
C1263      C2626   1.405       .  A
C1266      C2623   1.395       .  A
C1266      F1271   1.358       .  S
C1267      C2622   1.393       .  A
C1267      C1268   1.407       .  A
C1267      F1273   1.358       .  S
C1268      C1269   1.410       .  A
C1269      C1270   1.400       .  A
C1269      F1272   1.358       .  S
C1270      C2619   1.406       .  A
C1270      F1274   1.358       .  S
C1277      C1278   1.402       .  A
C1277      C1282   1.398       .  A
C1277      F1295   1.357       .  S
C1278      C1283   1.472       .  S
C1278      C1279   1.404       .  A
C1279      C1280   1.397       .  A
C1279      F1284   1.358       .  S
C1280      C1281   1.404       .  A
C1280      F1296   1.358       .  S
C1281      C1282   1.407       .  A
C1282      F1285   1.358       .  S
C1283      C1286   1.399       .  A
C1286      F1291   1.358       .  S
C1287      C1288   1.412       .  A
C1287      F1293   1.358   1_565  S
C1288      C1289   1.413       .  A
C1289      C1290   1.401       .  A
C1289      F1292   1.358       .  S
C1290      F1294   1.358       .  S
C1297      C1298   1.406       .  A
C1297      C1302   1.397       .  A
C1297      F1315   1.358       .  S
C1298      C1303   1.486       .  S
C1298      C1299   1.408       .  A
C1299      C1300   1.400       .  A
C1299      F1304   1.358       .  S
C1300      C1301   1.405       .  A
C1300      F1316   1.357       .  S
C1301      C1302   1.409       .  A
C1302      F1305   1.357       .  S
C1303      C1306   1.407       .  A
C1303      C1310   1.409       .  A
C1306      C1307   1.397       .  A
C1306      F1311   1.358       .  S
C1307      C1308   1.402       .  A
C1307      F1313   1.356       .  S
C1308      C1309   1.403       .  A
C1309      C1310   1.400       .  A
C1309      F1312   1.356       .  S
C1310      F1314   1.358       .  S
C1317      C1318   1.410       .  A
C1317      C1322   1.402       .  A
C1317      F1335   1.358       .  S
C1318      C1319   1.410       .  A
C1319      C1320   1.400       .  A
C1320      C1321   1.403       .  A
C1320      F1336   1.356       .  S
C1321      C1322   1.403       .  A
C1322      F1325   1.356       .  S
C1323      C1326   1.409       .  A
C1323      C1330   1.407       .  A
C1326      C1327   1.403       .  A
C1326      F1331   1.358       .  S
C1327      C1328   1.405       .  A
C1327      F1333   1.357       .  S
C1328      C1329   1.408       .  A
C1329      C1330   1.398       .  A
C1329      F1332   1.358       .  S
C1330      F1334   1.358       .  S
C1337      C1338   1.411       .  A
C1337      C1342   1.397       .  A
C1337      F1355   1.358       .  S
C1338      C2699   1.484       .  S
C1338      C1339   1.409       .  A
C1339      C1340   1.395       .  A
C1339      F2700   1.358       .  S
C1340      C1341   1.400       .  A
C1340      F1356   1.358       .  S
C1341      C1342   1.400       .  A
C1342      F1345   1.358       .  S
C1343      C2694   1.493   1_455  S
C1343      C1346   1.409       .  A
C1343      C1350   1.408       .  A
F1344      C2695   1.358       .  S
C1346      C1347   1.398       .  A
C1346      F1351   1.357   1_455  S
C1347      C1348   1.408       .  A
C1347      F1353   1.357       .  S
C1348      C1349   1.409       .  A
C1349      C1350   1.399       .  A
C1349      F1352   1.354       .  S
C1350      F1354   1.358       .  S
C1357      H1358   1.111       .  S
C1357      C1363   1.543       .  S
C1357      C1362   1.541       .  S
C1357      C1361   1.541       .  S
C1359      H1360   1.112       .  S
C1359      C1365   1.529       .  S
C1359      C1364   1.524       .  S
C1359      C1366   1.529       .  S
C1361      C1364   1.370       .  D
C1361      C2019   1.469       .  S
C1362      C1365   1.376       .  D
C1362      C1979   1.483       .  S
C1363      C1366   1.375       .  D
C1363      C2006   1.494       .  S
C1364      C1939   1.482       .  S
C1365      C1926   1.482       .  S
C1366      C1959   1.475       .  S
C1367      H1368   1.110       .  S
C1367      C1373   1.535       .  S
C1367      C1372   1.533       .  S
C1367      C1371   1.524       .  S
C1369      H1370   1.109       .  S
C1369      C1375   1.538       .  S
C1369      C1374   1.544       .  S
C1369      C1376   1.550       .  S
C1371      C1374   1.368       .  D
C1371      C1866   1.481       .  S
C1372      C1375   1.366       .  D
C1372      C1899   1.472       .  S
C1373      C1376   1.388       .  D
C1373      C1886   1.497       .  S
C1374      C1986   1.477       .  S
C1375      C1999   1.487       .  S
C1376      C2026   1.494       .  S
O1377     Ni1383   1.924       .  S
O1377      C1398   1.271       .  A
O1378     Ni1401   1.915       .  S
O1378      C1387   1.268       .  A
O1379     Ni1383   1.899       .  S
O1379     Ni1401   1.901       .  S
O1379     Ni1395   1.913       .  S
O1379      H1402   0.963       .  S
C1380      O1397   1.279       .  A
C1380      O1389   1.278       .  A
C1380      C1839   1.485       .  S
O1381     Ni1400   1.925       .  S
O1381      C1387   1.270       .  A
O1382     Ni1400   1.902       .  S
O1382      C1384   1.267       .  A
Ni1383     O1386   1.930       .  S
Ni1383     O1388   1.907       .  S
C1384      O1394   1.273       .  A
C1384      C1806   1.491       .  S
O1385     Ni1401   1.916       .  S
O1385      C1391   1.278       .  A
O1386      C1391   1.280       .  A
C1387      C1966   1.487       .  S
O1388      C1390   1.267       .  A
O1389     Ni1400   1.921       .  S
C1390      O1396   1.271       .  A
C1390      C1946   1.483       .  S
C1391      C1919   1.492       .  S
H1392      O1393   0.968       .  S
O1393     Ni1401   1.916       .  S
O1393     Ni1395   1.905       .  S
O1393     Ni1400   1.897       .  S
O1394     Ni1395   1.933       .  S
Ni1395     O1399   1.912       .  S
Ni1395     O1397   1.930       .  S
O1396     Ni1401   1.930       .  S
C1398      O1399   1.269       .  A
C1398      C1819   1.488       .  S
C1403      H1404   1.112       .  S
C1403      C2087   1.531   1_545  S
C1403      C1408   1.533   1_655  S
C1403      C2085   1.531   1_645  S
C1405      H1406   1.111       .  S
C1405      C1411   1.544   1_655  S
C1405      C2088   1.541   1_645  S
C1405      C2090   1.544   1_545  S
C1407      C2081   1.529   1_455  S
C1407      C1410   1.370       .  D
C1408      C1411   1.375       .  D
C1409      C2081   1.534       .  S
C1409      C1412   1.377       .  D
C1409      C1799   1.485       .  S
C1410      C2083   1.542   1_455  S
C1412      C2083   1.544       .  S
C1412      C1786   1.488       .  S
C1413      H1414   1.111       .  S
C1413      C1419   1.546       .  S
C1413      C1418   1.545       .  S
C1413      C1417   1.545       .  S
C1415      H1416   1.112       .  S
C1415      C1421   1.530       .  S
C1415      C1420   1.532       .  S
C1415      C1422   1.529       .  S
C1417      C1420   1.374       .  D
C1417      C1766   1.486       .  S
C1418      C1421   1.372       .  D
C1418      C1779   1.487       .  S
C1419      C1422   1.374       .  D
C1419      C1746   1.489       .  S
C1420      C1699   1.485       .  S
C1421      C1679   1.478       .  S
C1422      C1726   1.479       .  S
C1423      H1424   1.111       .  S
C1423      C1429   1.538       .  S
C1423      C1428   1.539       .  S
C1423      C1427   1.543       .  S
C1425      H1426   1.112       .  S
C1425      C1431   1.535       .  S
C1425      C1430   1.529       .  S
C1425      C1432   1.531       .  S
C1427      C1430   1.373       .  D
C1427      C1619   1.487       .  S
C1428      C1431   1.377       .  D
C1428      C1639   1.484       .  S
C1429      C1432   1.368       .  D
C1429      C1666   1.478       .  S
C1430      C1599   1.477       .  S
C1431      C1579   1.485       .  S
C1432      C1559   1.478       .  S
C1433      H1434   1.109       .  S
C1433      C1439   1.554       .  S
C1433      C2116   1.533       .  S
C1433      C2115   1.550       .  S
C1435      H1436   1.110       .  S
C1435      C2119   1.536       .  S
C1435      C2118   1.525       .  S
C1435      C1442   1.536       .  S
C1437      C2111   1.550       .  S
C1437      C1440   1.371       .  D
C1437      C1646   1.480       .  S
C1438      C2111   1.532       .  S
C1438      C1441   1.365       .  D
C1439      C1442   1.384       .  D
C1440      C2113   1.522       .  S
C1440      C1499   1.488       .  S
C1441      C2113   1.535       .  S
O1443     Ni1449   1.925       .  S
O1443      C1464   1.270       .  A
O1444     Ni1467   1.914       .  S
O1444      C1453   1.270       .  A
O1445     Ni1449   1.897       .  S
O1445     Ni1467   1.902       .  S
O1445     Ni1461   1.910       .  S
O1445      H1468   0.968       .  S
C1446      O1463   1.278       .  A
C1446      O1455   1.278       .  A
C1446      C1859   1.477       .  S
O1447     Ni1466   1.924       .  S
O1447      C1453   1.271       .  A
O1448     Ni1466   1.912       .  S
O1448      C1450   1.269       .  A
Ni1449     O1452   1.921       .  S
Ni1449     O1454   1.901       .  S
C1450      O1460   1.269       .  A
C1450      C1879   1.483       .  S
O1451     Ni1467   1.912       .  S
O1451      C1457   1.276       .  A
O1452      C1457   1.278       .  A
C1453      C1519   1.488       .  S
O1454      C1456   1.267       .  A
O1455     Ni1466   1.920       .  S
C1456      O1462   1.273       .  A
C1456      C1506   1.492       .  S
C1457      C1546   1.476       .  S
H1458      O1459   0.965       .  S
O1459     Ni1467   1.908       .  S
O1459     Ni1461   1.895       .  S
O1459     Ni1466   1.895       .  S
O1460     Ni1461   1.925       .  S
Ni1461     O1465   1.903       .  S
Ni1461     O1463   1.920       .  S
O1462     Ni1467   1.932       .  S
C1464      O1465   1.266       .  A
C1464      C1906   1.482       .  S
O1469     Ni1475   1.921       .  S
O1469      C1490   1.270   1_554  A
O1470      C1479   1.266       .  A
O1471     Ni1475   1.902       .  S
O1471     Ni2171   1.903   1_545  S
O1471      H1494   0.967       .  S
C1472      O1489   1.277       .  A
C1472      O1481   1.276       .  A
C1472      C1686   1.477       .  S
O1473     Ni1492   1.927       .  S
O1473      C1479   1.270       .  A
O1474     Ni1492   1.910   1_556  S
Ni1475     O1478   1.932       .  S
Ni1475     O1480   1.891       .  S
C1476      O1486   1.271       .  A
C1476      C1719   1.489       .  S
O1477     Ni2171   1.907   1_545  S
O1477      C1483   1.273       .  A
O1478      C1483   1.277       .  A
C1479      C1566   1.484       .  S
O1481     Ni1492   1.914   1_556  S
C1482      O1488   1.271       .  A
C1482      C1606   1.484       .  S
C1483      C1586   1.472       .  S
H1484      O1485   0.966       .  S
O1485     Ni2165   1.906       .  S
O1485     Ni1492   1.905       .  S
Ni1487     O2167   1.919   1_544  S
Ni1487     O2163   1.905   1_545  S
O1489     Ni2165   1.925   1_556  S
C1490      O1491   1.269       .  A
C1490      C1706   1.483       .  S
Ni1493     O2155   1.907       .  S
Ni1493     O2149   1.905       .  S
C1495      C1496   1.404       .  A
C1495      C1500   1.399       .  A
C1495      F1513   1.358       .  S
C1496      C1501   1.481       .  S
C1496      C1497   1.406       .  A
C1497      C1498   1.398       .  A
C1497      F1502   1.358       .  S
C1498      C1499   1.406       .  A
C1498      F1514   1.357       .  S
C1499      C1500   1.407       .  A
C1500      F1503   1.356       .  S
C1501      C1504   1.402       .  A
C1501      C1508   1.404       .  A
C1504      C1505   1.395       .  A
C1504      F1509   1.359       .  S
C1505      C1506   1.414       .  A
C1505      F1511   1.358       .  S
C1506      C1507   1.413       .  A
C1507      C1508   1.403       .  A
C1507      F1510   1.358       .  S
C1508      F1512   1.358       .  S
C1515      C1516   1.404       .  A
C1515      C1520   1.403       .  A
C1515      F1533   1.358       .  S
C1516      C1521   1.478       .  S
C1516      C1517   1.401       .  A
C1517      C1518   1.394       .  A
C1518      C1519   1.412       .  A
C1518      F1534   1.358       .  S
C1519      C1520   1.413       .  A
C1520      F1523   1.358       .  S
C1521      C1524   1.402       .  A
C1521      C1528   1.403       .  A
C1524      C1525   1.393       .  A
C1524      F1529   1.359       .  S
C1525      C1526   1.408       .  A
C1525      F1531   1.353       .  S
C1527      F1530   1.357       .  S
C1528      F1532   1.357       .  S
C1535      C1536   1.407       .  A
C1535      C1540   1.395       .  A
C1535      F1553   1.358       .  S
C1536      C1541   1.476       .  S
C1536      C1537   1.407       .  A
C1537      C1538   1.393       .  A
C1537      F1542   1.358       .  S
C1538      C1539   1.400       .  A
C1538      F2232   1.357   1_545  S
C1539      C1540   1.401       .  A
C1541      C1544   1.404       .  A
C1541      C1548   1.405       .  A
C1544      C1545   1.396       .  A
C1544      F1549   1.358       .  S
C1545      C1546   1.409       .  A
C1545      F1551   1.358       .  S
C1546      C1547   1.408       .  A
C1547      C1548   1.394       .  A
C1547      F1550   1.358       .  S
C1548      F1552   1.359       .  S
F1554      C2216   1.356       .  S
C1555      C1556   1.406       .  A
C1555      C1560   1.399       .  A
C1555      F1573   1.358       .  S
C1556      C1561   1.481       .  S
C1556      C1557   1.407       .  A
C1557      C1558   1.399       .  A
C1557      F1562   1.358       .  S
C1558      C1559   1.403       .  A
C1558      F1574   1.357       .  S
C1559      C1560   1.403       .  A
C1560      F1563   1.357       .  S
C1561      C1564   1.404       .  A
C1561      C1568   1.405       .  A
C1564      C1565   1.396       .  A
C1564      F1569   1.358       .  S
C1565      C1566   1.411       .  A
C1566      C1567   1.410       .  A
C1567      C1568   1.400       .  A
C1567      F1570   1.358       .  S
C1568      F1572   1.358       .  S
C1575      C1576   1.405       .  A
C1575      C1580   1.396       .  A
C1575      F1593   1.358       .  S
C1576      C1581   1.477       .  S
C1576      C1577   1.404       .  A
C1577      C1578   1.400       .  A
C1577      F1582   1.358       .  S
C1578      C1579   1.409       .  A
C1578      F1594   1.357       .  S
C1579      C1580   1.404       .  A
C1580      F1583   1.357       .  S
C1581      C1584   1.405       .  A
C1581      C1588   1.405       .  A
C1584      C1585   1.399       .  A
C1584      F1589   1.357       .  S
C1585      C1586   1.405       .  A
C1585      F1591   1.358       .  S
C1586      C1587   1.407       .  A
C1587      C1588   1.397       .  A
C1587      F1590   1.359       .  S
C1588      F1592   1.358       .  S
C1595      C1596   1.403       .  A
C1595      C1600   1.398       .  A
C1595      F1613   1.358       .  S
C1596      C1601   1.469       .  S
C1596      C1597   1.401       .  A
C1597      C1598   1.396       .  A
C1597      F1602   1.358       .  S
C1598      C1599   1.405       .  A
C1598      F1614   1.358       .  S
C1599      C1600   1.405       .  A
C1600      F1603   1.358       .  S
C1601      C1604   1.401       .  A
C1601      C1608   1.399       .  A
C1604      C1605   1.399       .  A
C1604      F1609   1.358       .  S
C1605      C1606   1.412       .  A
C1605      F1611   1.358       .  S
C1606      C1607   1.413       .  A
C1607      C1608   1.394       .  A
C1608      F1612   1.358       .  S
C1615      C1616   1.407       .  A
C1615      C1620   1.398       .  A
C1615      F1633   1.358       .  S
C1616      C1621   1.491       .  S
C1616      C1617   1.411       .  A
C1617      C1618   1.403       .  A
C1617      F1622   1.358       .  S
C1618      C1619   1.403       .  A
C1618      F1634   1.357       .  S
C1619      C1620   1.407       .  A
C1620      F1623   1.358       .  S
C1621      C1624   1.409       .  A
C1621      C1628   1.410       .  A
C1624      C1625   1.401       .  A
C1624      F1629   1.358   1_655  S
C1625      C1626   1.402       .  A
C1626      C1627   1.404       .  A
C1627      C1628   1.400       .  A
C1627      F1630   1.357   1_545  S
C1628      F1632   1.358       .  S
C1635      C1636   1.405       .  A
C1635      C1640   1.399       .  A
C1635      F1653   1.358       .  S
C1636      C1641   1.478       .  S
C1636      C1637   1.404       .  A
C1637      C1638   1.397       .  A
C1637      F1642   1.358       .  S
C1638      C1639   1.408       .  A
C1638      F1654   1.357       .  S
C1639      C1640   1.405       .  A
C1640      F1643   1.358       .  S
C1641      C1644   1.404       .  A
C1641      C1648   1.405       .  A
C1644      C1645   1.398       .  A
C1644      F1649   1.358       .  S
C1645      C1646   1.407       .  A
C1645      F1651   1.358       .  S
C1646      C1647   1.403       .  A
C1647      C1648   1.398       .  A
C1647      F1650   1.355   1_545  S
C1648      F1652   1.358       .  S
C1655      C1656   1.408       .  A
C1655      C1660   1.401       .  A
C1655      F1673   1.358       .  S
C1656      C1661   1.493       .  S
C1656      C1657   1.407       .  A
C1657      C1658   1.399       .  A
C1657      F1662   1.358       .  S
C1658      C1659   1.413       .  A
C1658      F1674   1.357       .  S
C1659      C1660   1.409       .  A
C1661      C1664   1.412       .  A
C1661      C1668   1.410       .  A
C1664      C1665   1.400       .  A
C1664      F1669   1.358       .  S
C1665      C1666   1.401       .  A
C1665      F1671   1.358       .  S
C1666      C1667   1.402       .  A
C1667      C1668   1.400       .  A
C1667      F1670   1.358       .  S
C1668      F1672   1.357       .  S
C1675      C1676   1.408       .  A
C1675      C1680   1.395       .  A
C1675      F1693   1.358       .  S
C1676      C1681   1.483       .  S
C1676      C1677   1.406       .  A
C1677      C1678   1.401       .  A
C1677      F1682   1.358       .  S
C1678      C1679   1.406       .  A
C1678      F1694   1.358       .  S
C1679      C1680   1.400       .  A
C1680      F1683   1.358       .  S
C1681      C1684   1.408       .  A
C1681      C1688   1.405       .  A
C1684      C1685   1.402       .  A
C1684      F1689   1.358       .  S
C1685      C1686   1.407       .  A
C1685      F1691   1.358       .  S
C1686      C1687   1.406       .  A
C1687      C1688   1.394       .  A
C1687      F1690   1.358       .  S
C1688      F1692   1.358       .  S
C1695      C1696   1.404       .  A
C1695      C1700   1.397       .  A
C1695      F1713   1.358       .  S
C1696      C1701   1.474       .  S
C1696      C1697   1.403       .  A
C1697      C1698   1.400       .  A
C1697      F1702   1.358       .  S
C1698      C1699   1.408       .  A
C1698      F1714   1.357       .  S
C1699      C1700   1.405       .  A
C1700      F1703   1.357       .  S
C1701      C1704   1.405       .  A
C1701      C1708   1.399       .  A
C1704      C1705   1.405       .  A
C1704      F1709   1.357       .  S
C1705      C1706   1.411       .  A
C1706      C1707   1.412       .  A
C1707      C1708   1.390       .  A
C1707      F1710   1.358       .  S
C1708      F1712   1.358       .  S
C1715      C1716   1.401       .  A
C1715      C1720   1.396       .  A
C1715      F1733   1.358       .  S
C1716      C1721   1.476       .  S
C1716      C1717   1.403       .  A
C1717      C1718   1.401       .  A
C1717      F1722   1.358       .  S
C1718      C1719   1.413       .  A
C1718      F1734   1.358       .  S
C1719      C1720   1.413       .  A
C1720      F1723   1.358       .  S
C1721      C1724   1.405       .  A
C1721      C1728   1.404       .  A
C1724      C1725   1.398       .  A
C1724      F1729   1.358       .  S
C1725      C1726   1.404       .  A
C1725      F1731   1.358       .  S
C1726      C1727   1.405       .  A
C1727      C1728   1.398       .  A
C1727      F1730   1.357       .  S
C1728      F1732   1.358       .  S
C1735      C1736   1.408       .  A
C1736      C1741   1.490       .  S
C1736      C1737   1.407       .  A
C1737      C1738   1.400       .  A
C1737      F1742   1.358       .  S
C1738      C1739   1.406       .  A
C1738      F2432   1.358       .  S
C1740      F1743   1.357   1_455  S
C1741      C1744   1.409       .  A
C1741      C1748   1.406       .  A
C1744      C1745   1.405       .  A
C1744      F1749   1.358       .  S
C1745      C1746   1.405       .  A
C1745      F1751   1.358       .  S
C1746      C1747   1.407       .  A
C1747      C1748   1.399       .  A
C1747      F1750   1.357       .  S
C1748      F1752   1.358       .  S
F1754      C2416   1.357   1_545  S
C1755      C1756   1.408       .  A
C1755      C1760   1.402       .  A
C1755      F1773   1.357       .  S
C1756      C1761   1.487       .  S
C1756      C1757   1.407       .  A
C1758      F1774   1.357   1_455  S
C1759      C1760   1.402       .  A
C1760      F1763   1.357       .  S
C1761      C1764   1.409       .  A
C1761      C1768   1.406       .  A
C1764      C1765   1.403       .  A
C1764      F1769   1.358       .  S
C1765      C1766   1.404       .  A
C1765      F1771   1.358       .  S
C1766      C1767   1.407       .  A
C1767      C1768   1.398       .  A
C1767      F1770   1.358       .  S
C1768      F1772   1.358       .  S
C1775      C1776   1.410       .  A
C1775      C1780   1.403       .  A
C1775      F1793   1.358       .  S
C1776      C1781   1.494       .  S
C1776      C1777   1.409       .  A
C1777      C1778   1.402       .  A
C1777      F1782   1.358       .  S
C1778      C1779   1.406       .  A
C1778      F1794   1.358       .  S
C1779      C1780   1.403       .  A
C1780      F1783   1.358       .  S
C1781      C1784   1.410       .  A
C1781      C1788   1.409       .  A
C1784      C1785   1.402       .  A
C1784      F1789   1.358       .  S
C1785      C1786   1.404       .  A
C1785      F2469   1.358       .  S
C1786      C1787   1.406       .  A
C1787      C1788   1.403       .  A
C1787      F1790   1.358       .  S
C1788      F1792   1.358       .  S
F1791      C2463   1.357   1_545  S
C1795      C1796   1.404       .  A
C1795      C1800   1.400       .  A
C1795      F1813   1.358       .  S
C1796      C1801   1.475       .  S
C1796      C1797   1.401       .  A
C1797      C1798   1.397       .  A
C1797      F1802   1.358       .  S
C1798      C1799   1.406       .  A
C1798      F2492   1.356       .  S
C1799      C1800   1.408       .  A
C1800      F1803   1.357       .  S
C1801      C1804   1.399       .  A
C1801      C1808   1.402       .  A
C1804      C1805   1.397       .  A
C1804      F1809   1.358       .  S
C1805      C1806   1.415       .  A
C1805      F1811   1.358       .  S
C1806      C1807   1.412       .  A
C1807      C1808   1.402       .  A
C1807      F1810   1.358       .  S
C1808      F1812   1.358       .  S
F1814      C2476   1.357       .  S
C1815      C1816   1.403       .  A
C1815      C1820   1.391       .  A
C1815      F1833   1.359       .  S
C1816      C1821   1.483       .  S
C1816      C1817   1.407       .  A
C1817      C1818   1.404       .  A
C1817      F1822   1.358       .  S
C1818      C1819   1.412       .  A
C1818      F1834   1.358       .  S
C1819      C1820   1.412       .  A
C1820      F1823   1.358       .  S
C1821      C1824   1.408       .  A
C1821      C1828   1.407       .  A
C1824      C1825   1.401       .  A
C1824      F1829   1.357       .  S
C1825      C1826   1.403       .  A
C1825      F1831   1.357       .  S
C1827      F1830   1.356       .  S
C1835      C1836   1.406       .  A
C1835      C1840   1.396       .  A
C1835      F1853   1.358       .  S
C1836      C1841   1.490       .  S
C1836      C1837   1.409       .  A
C1837      C1838   1.405       .  A
C1837      F1842   1.358       .  S
C1838      C1839   1.410       .  A
C1838      F1854   1.358       .  S
C1839      C1840   1.407       .  A
C1840      F1843   1.358       .  S
C1841      C1844   1.409       .  A
C1841      C1848   1.410       .  A
C1844      C1845   1.402       .  A
C1844      F1849   1.357       .  S
C1845      C1846   1.404       .  A
C1846      C1847   1.401       .  A
C1847      C1848   1.398       .  A
C1847      F1850   1.358       .  S
C1848      F1852   1.358       .  S
C1855      C1856   1.407       .  A
C1855      C1860   1.397       .  A
C1855      F1873   1.358       .  S
C1856      C1861   1.483       .  S
C1856      C1857   1.406       .  A
C1857      C1858   1.399       .  A
C1857      F1862   1.358       .  S
C1858      C1859   1.407       .  A
C1858      F1874   1.358       .  S
C1859      C1860   1.407       .  A
C1860      F1863   1.358       .  S
C1861      C1864   1.407       .  A
C1861      C1868   1.407       .  A
C1864      C1865   1.399       .  A
C1864      F1869   1.358       .  S
C1865      C1866   1.404       .  A
C1865      F1871   1.356       .  S
C1866      C1867   1.401       .  A
C1867      C1868   1.396       .  A
C1867      F1870   1.353       .  S
C1868      F1872   1.358       .  S
C1875      C1876   1.406       .  A
C1875      F1893   1.358       .  S
C1876      C1881   1.484       .  S
C1877      C1878   1.396       .  A
C1877      F1882   1.358       .  S
C1878      C1879   1.406       .  A
C1878      F1894   1.358       .  S
C1879      C1880   1.409       .  A
C1880      F1883   1.358       .  S
C1881      C1884   1.403       .  A
C1881      C1888   1.406       .  A
C1884      C1885   1.393       .  A
C1884      F1889   1.358       .  S
C1885      C1886   1.409       .  A
C1885      F1891   1.354       .  S
C1886      C1887   1.411       .  A
C1887      C1888   1.403       .  A
C1887      F1890   1.357       .  S
C1895      C1896   1.402       .  A
C1895      C1900   1.395       .  A
C1895      F1913   1.358       .  S
C1896      C1901   1.472       .  S
C1896      C1897   1.406       .  A
C1897      C1898   1.396       .  A
C1897      F1902   1.358       .  S
C1898      C1899   1.400       .  A
C1898      F1914   1.356       .  S
C1899      C1900   1.404       .  A
C1900      F1903   1.357       .  S
C1901      C2582   1.402       .  A
C1901      C2586   1.402       .  A
C1904      C2579   1.402       .  A
C1904      C1905   1.398       .  A
C1904      F1909   1.358       .  S
C1905      C1906   1.411       .  A
C1905      F1911   1.358       .  S
C1906      C1907   1.411       .  A
C1907      C1908   1.393       .  A
C1907      F1910   1.358       .  S
C1908      C2579   1.401       .  A
C1908      F2590   1.358   1_545  S
F1912      C2586   1.358       .  S
C1915      C1916   1.400       .  A
C1915      C1920   1.397       .  A
C1915      F1933   1.358       .  S
C1916      C1921   1.474       .  S
C1916      C1917   1.401       .  A
C1917      C1918   1.400       .  A
C1917      F1922   1.358       .  S
C1918      C1919   1.414       .  A
C1918      F1934   1.358       .  S
C1919      C1920   1.415       .  A
C1920      F1923   1.358       .  S
C1921      C1924   1.404       .  A
C1921      C1928   1.402       .  A
C1924      C1925   1.399       .  A
C1924      F1929   1.358       .  S
C1925      C1926   1.406       .  A
C1925      F1931   1.358       .  S
C1926      C1927   1.405       .  A
C1927      C1928   1.396       .  A
C1927      F1930   1.356       .  S
C1928      F1932   1.358       .  S
C1935      C1936   1.404       .  A
C1935      C1940   1.400       .  A
C1935      F1953   1.358       .  S
C1936      C1941   1.481   1_655  S
C1936      C1937   1.406       .  A
C1937      C1938   1.398       .  A
C1937      F1942   1.358       .  S
C1938      C1939   1.402       .  A
C1938      F1954   1.357       .  S
C1939      C1940   1.407       .  A
C1940      F1943   1.355       .  S
C1941      C1944   1.405   1_455  A
C1944      F1949   1.358       .  S
C1945      C1946   1.409       .  A
C1945      F1951   1.358       .  S
C1946      C1947   1.410       .  A
C1947      C1948   1.401       .  A
C1947      F1950   1.358       .  S
C1948      F1952   1.358       .  S
C1955      C1956   1.403       .  A
C1955      C1960   1.398       .  A
C1955      F1973   1.358       .  S
C1956      C1961   1.469       .  S
C1956      C1957   1.403       .  A
C1957      C1958   1.393       .  A
C1957      F1962   1.358       .  S
C1958      C1959   1.403       .  A
C1958      F1974   1.358       .  S
C1959      C1960   1.406       .  A
C1960      F1963   1.358       .  S
C1961      C1964   1.399       .  A
C1961      C2646   1.401   1_545  A
C1964      C2643   1.393   1_545  A
C1964      F1969   1.358       .  S
C1965      C2642   1.397       .  A
C1965      C1966   1.412       .  A
C1965      F1971   1.358       .  S
C1966      C1967   1.411       .  A
C1967      C1968   1.402       .  A
C1967      F1970   1.358       .  S
C1968      C2639   1.403       .  A
C1968      F1972   1.358       .  S
C1975      C1976   1.407       .  A
C1975      C1980   1.394       .  A
C1975      F1993   1.358       .  S
C1976      C1981   1.487       .  S
C1976      C1977   1.411       .  A
C1977      C1978   1.401       .  A
C1977      F1982   1.358       .  S
C1978      C1979   1.404       .  A
C1978      F1994   1.358       .  S
C1979      C1980   1.405       .  A
C1980      F1983   1.358       .  S
C1981      C1984   1.409       .  A
C1981      C1988   1.409       .  A
C1984      C1985   1.396       .  A
C1984      F1989   1.357       .  S
C1985      C1986   1.401       .  A
C1985      F1991   1.357       .  S
C1986      C1987   1.404       .  A
C1987      C1988   1.398       .  A
C1987      F1990   1.356       .  S
C1988      F1992   1.358       .  S
C1995      C1996   1.409       .  A
C1995      C2000   1.403       .  A
C1995      F2013   1.358       .  S
C1996      C2679   1.493       .  S
C1996      C1997   1.409       .  A
C1997      C1998   1.400       .  A
C1997      F2680   1.358       .  S
C1998      C1999   1.403       .  A
C1998      F2014   1.356       .  S
C1999      C2000   1.404       .  A
C2000      F2003   1.355       .  S
C2001      C2674   1.494   1_545  S
C2001      C2004   1.412       .  A
C2001      C2008   1.407       .  A
F2002      C2675   1.358       .  S
C2004      C2005   1.404       .  A
C2004      F2009   1.358       .  S
C2005      C2006   1.405       .  A
C2005      F2011   1.356       .  S
C2006      C2007   1.408       .  A
C2007      C2008   1.397       .  A
C2007      F2010   1.357       .  S
C2008      F2012   1.358       .  S
C2015      C2016   1.410       .  A
C2015      C2020   1.398       .  A
C2015      F2033   1.358       .  S
C2016      C2017   1.407       .  A
C2017      C2018   1.393       .  A
C2018      C2019   1.399       .  A
C2018      F2034   1.357       .  S
C2019      C2020   1.401       .  A
C2020      F2023   1.358       .  S
C2021      C2024   1.407       .  A
C2021      C2028   1.405       .  A
C2024      C2025   1.397       .  A
C2024      F2029   1.358       .  S
C2025      C2026   1.409       .  A
C2025      F2031   1.357       .  S
C2026      C2027   1.409       .  A
C2027      C2028   1.397       .  A
C2027      F2030   1.353       .  S
C2028      F2032   1.358       .  S
C2035      H2036   1.111       .  S
C2035      C2041   1.546       .  S
C2035      C2040   1.541       .  S
C2035      C2039   1.538       .  S
C2037      H2038   1.112       .  S
C2037      C2043   1.534       .  S
C2037      C2042   1.528       .  S
C2037      C2044   1.529       .  S
C2039      C2042   1.367       .  D
C2039      C2697   1.476       .  S
C2040      C2043   1.378       .  D
C2040      C2657   1.488       .  S
C2041      C2044   1.377       .  D
C2041      C2684   1.492       .  S
C2042      C2617   1.474       .  S
C2043      C2604   1.485       .  S
C2044      C2637   1.483       .  S
C2045      H2046   1.109       .  S
C2045      C2051   1.537       .  S
C2045      C2050   1.533       .  S
C2045      C2049   1.524       .  S
C2047      H2048   1.109       .  S
C2047      C2053   1.535       .  S
C2047      C2052   1.544       .  S
C2047      C2054   1.552       .  S
C2049      C2052   1.366       .  D
C2049      C2544   1.476       .  S
C2050      C2053   1.364       .  D
C2050      C2577   1.473       .  S
C2051      C2054   1.392       .  D
C2051      C2564   1.504       .  S
C2052      C2664   1.481       .  S
C2053      C2677   1.483       .  S
C2054      C2704   1.495       .  S
O2055     Ni2061   1.919       .  S
O2055      C2076   1.268       .  A
O2056     Ni2079   1.903       .  S
O2056      C2065   1.264       .  A
O2057     Ni2061   1.902       .  S
O2057     Ni2079   1.904       .  S
O2057     Ni2073   1.912       .  S
O2057      H2080   0.963       .  S
C2058      O2075   1.278       .  A
C2058      O2067   1.277       .  A
C2058      C2517   1.486       .  S
O2059     Ni2078   1.926       .  S
O2059      C2065   1.270       .  A
O2060     Ni2078   1.906       .  S
O2060      C2062   1.268       .  A
Ni2061     O2064   1.921       .  S
Ni2061     O2066   1.900       .  S
C2062      O2072   1.271       .  A
C2062      C2484   1.487       .  S
O2063     Ni2079   1.917       .  S
O2063      C2069   1.276       .  A
O2064      C2069   1.277       .  A
C2065      C2644   1.483       .  S
O2066      C2068   1.266       .  A
O2067     Ni2078   1.918       .  S
C2068      O2074   1.268       .  A
C2068      C2624   1.479       .  S
C2069      C2597   1.483       .  S
H2070      O2071   0.968       .  S
O2071     Ni2079   1.915       .  S
O2071     Ni2073   1.909       .  S
O2071     Ni2078   1.904       .  S
O2072     Ni2073   1.921       .  S
Ni2073     O2077   1.918       .  S
Ni2073     O2075   1.927       .  S
O2074     Ni2079   1.921       .  S
C2076      O2077   1.269       .  A
C2076      C2497   1.485       .  S
C2081      H2082   1.112       .  S
C2081      C2086   1.531   1_655  S
C2083      H2084   1.111       .  S
C2083      C2089   1.545   1_655  S
C2085      C2088   1.371       .  D
C2086      C2089   1.375       .  D
C2087      C2090   1.372       .  D
C2087      C2477   1.476       .  S
C2090      C2464   1.489       .  S
C2091      H2092   1.111       .  S
C2091      C2097   1.542       .  S
C2091      C2096   1.541       .  S
C2091      C2095   1.544       .  S
C2093      H2094   1.112       .  S
C2093      C2099   1.528       .  S
C2093      C2098   1.526       .  S
C2093      C2100   1.527       .  S
C2095      C2098   1.373       .  D
C2095      C2444   1.484       .  S
C2096      C2099   1.372       .  D
C2096      C2457   1.482       .  S
C2097      C2100   1.376       .  D
C2097      C2424   1.485       .  S
C2098      C2377   1.480       .  S
C2099      C2357   1.477       .  S
C2100      C2404   1.479       .  S
C2101      H2102   1.111       .  S
C2101      C2107   1.534       .  S
C2101      C2106   1.535       .  S
C2101      C2105   1.546       .  S
C2103      H2104   1.112       .  S
C2103      C2109   1.532       .  S
C2103      C2108   1.528       .  S
C2103      C2110   1.532       .  S
C2105      C2108   1.374       .  D
C2105      C2297   1.484       .  S
C2106      C2109   1.373       .  D
C2106      C2317   1.484       .  S
C2107      C2110   1.371       .  D
C2107      C2344   1.473       .  S
C2108      C2277   1.484       .  S
C2109      C2257   1.474       .  S
C2110      C2237   1.478       .  S
C2111      H2112   1.108       .  S
C2111      C2117   1.555   1_545  S
C2113      H2114   1.109       .  S
C2113      C2120   1.536   1_545  S
C2115      C2118   1.373       .  D
C2115      C2324   1.481       .  S
C2116      C2119   1.367       .  D
C2117      C2120   1.387       .  D
C2118      C2177   1.489       .  S
O2121     Ni2127   1.926       .  S
O2121      C2142   1.270       .  A
O2122     Ni2145   1.903       .  S
O2122      C2131   1.269       .  A
O2123     Ni2127   1.900       .  S
O2123     Ni2145   1.903       .  S
O2123     Ni2139   1.907       .  S
O2123      H2146   0.968       .  S
C2124      O2141   1.276       .  A
C2124      O2133   1.279       .  A
C2124      C2537   1.476       .  S
O2125     Ni2144   1.938       .  S
O2125      C2131   1.275       .  A
O2126     Ni2144   1.919       .  S
O2126      C2128   1.270       .  A
Ni2127     O2130   1.919       .  S
Ni2127     O2132   1.901       .  S
C2128      O2138   1.269       .  A
C2128      C2557   1.482       .  S
O2129     Ni2145   1.908       .  S
O2129      C2135   1.273       .  A
O2130      C2135   1.276       .  A
C2131      C2197   1.485       .  S
O2132      C2134   1.268       .  A
O2133     Ni2144   1.924       .  S
C2134      O2140   1.275       .  A
C2134      C2184   1.493       .  S
C2135      C2224   1.470       .  S
H2136      O2137   0.965       .  S
O2137     Ni2145   1.901       .  S
O2137     Ni2139   1.893       .  S
O2137     Ni2144   1.899       .  S
O2138     Ni2139   1.923       .  S
Ni2139     O2143   1.899       .  S
Ni2139     O2141   1.912       .  S
O2140     Ni2145   1.938       .  S
C2142      O2143   1.265       .  A
C2142      C2584   1.479       .  S
O2147     Ni2153   1.917       .  S
O2147      C2168   1.268   1_554  A
O2148      C2157   1.265       .  A
O2149     Ni2153   1.905       .  S
O2149      H2172   0.967       .  S
C2150      O2167   1.276       .  A
C2150      O2159   1.277       .  A
C2150      C2364   1.473       .  S
O2151     Ni2170   1.928       .  S
O2151      C2157   1.271       .  A
O2152     Ni2170   1.908   1_556  S
Ni2153     O2156   1.918       .  S
Ni2153     O2158   1.896       .  S
C2154      O2164   1.270       .  A
C2154      C2397   1.490       .  S
O2155      C2161   1.272       .  A
O2156      C2161   1.275       .  A
C2157      C2244   1.486       .  S
O2159     Ni2170   1.921   1_556  S
C2160      O2166   1.276   1_455  A
C2160      C2284   1.495   1_455  S
C2161      C2264   1.459       .  S
H2162      O2163   0.966       .  S
O2163     Ni2170   1.905       .  S
C2168      O2169   1.269       .  A
C2168      C2384   1.481       .  S
C2173      C2174   1.403       .  A
C2173      C2178   1.401       .  A
C2173      F2191   1.358       .  S
C2174      C2179   1.478       .  S
C2174      C2175   1.404       .  A
C2175      C2176   1.400       .  A
C2175      F2180   1.358       .  S
C2176      C2177   1.406       .  A
C2176      F2192   1.357       .  S
C2177      C2178   1.408       .  A
C2178      F2181   1.355       .  S
C2179      C2182   1.400       .  A
C2179      C2186   1.403       .  A
C2182      C2183   1.398       .  A
C2182      F2187   1.358       .  S
C2183      C2184   1.416       .  A
C2183      F2189   1.358       .  S
C2184      C2185   1.412       .  A
C2185      C2186   1.403       .  A
C2185      F2188   1.357       .  S
C2186      F2190   1.357       .  S
C2193      C2194   1.403       .  A
C2193      C2198   1.400       .  A
C2193      F2211   1.358       .  S
C2194      C2199   1.478       .  S
C2194      C2195   1.403       .  A
C2195      C2196   1.398       .  A
C2196      C2197   1.410       .  A
C2196      F2212   1.358       .  S
C2197      C2198   1.411       .  A
C2198      F2201   1.358       .  S
C2199      C2202   1.403       .  A
C2199      C2206   1.402       .  A
C2202      C2203   1.395       .  A
C2202      F2207   1.358       .  S
C2203      C2204   1.408       .  A
C2203      F2209   1.355       .  S
C2205      F2208   1.357       .  S
C2206      F2210   1.358   1_655  S
C2213      C2214   1.404       .  A
C2213      C2218   1.397       .  A
C2213      F2231   1.358   1_655  S
C2214      C2219   1.472       .  S
C2214      C2215   1.404       .  A
C2215      C2216   1.394       .  A
C2215      F2220   1.358       .  S
C2216      C2217   1.401       .  A
C2217      C2218   1.403       .  A
C2219      C2222   1.403       .  A
C2219      C2226   1.404       .  A
C2222      C2223   1.397       .  A
C2222      F2227   1.358       .  S
C2223      C2224   1.407       .  A
C2223      F2229   1.358       .  S
C2224      C2225   1.406       .  A
C2225      C2226   1.394       .  A
C2225      F2228   1.358       .  S
C2226      F2230   1.358       .  S
C2233      C2234   1.405       .  A
C2233      C2238   1.395       .  A
C2233      F2251   1.358       .  S
C2234      C2239   1.478       .  S
C2234      C2235   1.406       .  A
C2235      C2236   1.400       .  A
C2235      F2240   1.358       .  S
C2236      C2237   1.405       .  A
C2236      F2252   1.356       .  S
C2237      C2238   1.402       .  A
C2238      F2241   1.357       .  S
C2239      C2242   1.402       .  A
C2239      C2246   1.404       .  A
C2242      C2243   1.393       .  A
C2242      F2247   1.358       .  S
C2243      C2244   1.411       .  A
C2244      C2245   1.413       .  A
C2245      C2246   1.401       .  A
C2245      F2248   1.358       .  S
C2246      F2250   1.358       .  S
C2253      C2254   1.404       .  A
C2253      C2258   1.395       .  A
C2253      F2271   1.358       .  S
C2254      C2259   1.468       .  S
C2254      C2255   1.402       .  A
C2255      C2256   1.394       .  A
C2255      F2260   1.358       .  S
C2256      C2257   1.405       .  A
C2256      F2272   1.358       .  S
C2257      C2258   1.403       .  A
C2258      F2261   1.358       .  S
C2259      C2262   1.405       .  A
C2259      C2266   1.403       .  A
C2262      C2263   1.396       .  A
C2262      F2267   1.358       .  S
C2263      C2264   1.402       .  A
C2263      F2269   1.358       .  S
C2264      C2265   1.404       .  A
C2265      C2266   1.394       .  A
C2265      F2268   1.359       .  S
C2266      F2270   1.358       .  S
C2273      C2274   1.405       .  A
C2273      C2278   1.400       .  A
C2273      F2291   1.358       .  S
C2274      C2279   1.479       .  S
C2274      C2275   1.404       .  A
C2275      C2276   1.400       .  A
C2275      F2280   1.358       .  S
C2276      C2277   1.406       .  A
C2276      F2292   1.358       .  S
C2277      C2278   1.405       .  A
C2278      F2281   1.358       .  S
C2279      C2282   1.404       .  A
C2279      C2286   1.399       .  A
C2282      C2283   1.404       .  A
C2282      F2287   1.358       .  S
C2283      C2284   1.413       .  A
C2283      F2289   1.358       .  S
C2284      C2285   1.417       .  A
C2285      C2286   1.397       .  A
C2286      F2290   1.358       .  S
C2293      C2294   1.408       .  A
C2293      C2298   1.398       .  A
C2293      F2311   1.358       .  S
C2294      C2299   1.489       .  S
C2294      C2295   1.409       .  A
C2295      C2296   1.402       .  A
C2295      F2300   1.358       .  S
C2296      C2297   1.404       .  A
C2296      F2312   1.357       .  S
C2297      C2298   1.405       .  A
C2298      F2301   1.358       .  S
C2299      C2302   1.410       .  A
C2299      C2306   1.407       .  A
C2302      C2303   1.404   1_655  A
C2302      F2307   1.358   1_655  S
C2303      C2304   1.405   1_455  A
C2304      C2305   1.403       .  A
C2305      C2306   1.397       .  A
C2305      F2308   1.356       .  S
C2306      F2310   1.358       .  S
C2313      C2314   1.407       .  A
C2313      C2318   1.397       .  A
C2313      F2331   1.358       .  S
C2314      C2319   1.480       .  S
C2314      C2315   1.404       .  A
C2315      C2316   1.399       .  A
C2315      F2320   1.358       .  S
C2316      C2317   1.409       .  A
C2316      F2332   1.358       .  S
C2317      C2318   1.402       .  A
C2318      F2321   1.358       .  S
C2319      C2322   1.406       .  A
C2319      C2326   1.405       .  A
C2322      C2323   1.400       .  A
C2322      F2327   1.358       .  S
C2323      C2324   1.407       .  A
C2323      F2329   1.358       .  S
C2324      C2325   1.401       .  A
C2325      C2326   1.396       .  A
C2325      F2328   1.353       .  S
C2326      F2330   1.358       .  S
C2333      C2334   1.407       .  A
C2333      C2338   1.396       .  A
C2333      F2351   1.358       .  S
C2334      C2339   1.486       .  S
C2334      C2335   1.405       .  A
C2335      C2336   1.398       .  A
C2335      F2340   1.358       .  S
C2336      C2337   1.414       .  A
C2336      F2352   1.358       .  S
C2337      C2338   1.405       .  A
C2339      C2342   1.410       .  A
C2339      C2346   1.409       .  A
C2342      C2343   1.395       .  A
C2342      F2347   1.358       .  S
C2343      C2344   1.398       .  A
C2343      F2349   1.357       .  S
C2344      C2345   1.404       .  A
C2345      C2346   1.399       .  A
C2345      F2348   1.357       .  S
C2346      F2350   1.358       .  S
C2353      C2354   1.407       .  A
C2353      C2358   1.395       .  A
C2353      F2371   1.358       .  S
C2354      C2359   1.480       .  S
C2354      C2355   1.406       .  A
C2355      C2356   1.400       .  A
C2355      F2360   1.358       .  S
C2356      C2357   1.405       .  A
C2356      F2372   1.357       .  S
C2357      C2358   1.402       .  A
C2358      F2361   1.358       .  S
C2359      C2362   1.406       .  A
C2359      C2366   1.405       .  A
C2362      C2363   1.401       .  A
C2362      F2367   1.358       .  S
C2363      C2364   1.407       .  A
C2363      F2369   1.358       .  S
C2364      C2365   1.405       .  A
C2365      C2366   1.396       .  A
C2365      F2368   1.358       .  S
C2366      F2370   1.358       .  S
C2373      C2374   1.403       .  A
C2373      C2378   1.395       .  A
C2373      F2391   1.358       .  S
C2374      C2379   1.472       .  S
C2374      C2375   1.403       .  A
C2375      C2376   1.399       .  A
C2375      F2380   1.358       .  S
C2376      C2377   1.407       .  A
C2376      F2392   1.357       .  S
C2377      C2378   1.404       .  A
C2378      F2381   1.358       .  S
C2379      C2382   1.404       .  A
C2379      C2386   1.400       .  A
C2382      C2383   1.402       .  A
C2382      F2387   1.357       .  S
C2383      C2384   1.409       .  A
C2384      C2385   1.412       .  A
C2385      C2386   1.392       .  A
C2385      F2388   1.359       .  S
C2386      F2390   1.359       .  S
C2393      C2394   1.401       .  A
C2393      C2398   1.398       .  A
C2393      F2411   1.358       .  S
C2394      C2399   1.475       .  S
C2394      C2395   1.402       .  A
C2395      C2396   1.400       .  A
C2395      F2400   1.358       .  S
C2396      C2397   1.413       .  A
C2396      F2412   1.358       .  S
C2397      C2398   1.413       .  A
C2398      F2401   1.358       .  S
C2399      C2402   1.405       .  A
C2399      C2406   1.404       .  A
C2402      C2403   1.398       .  A
C2402      F2407   1.358       .  S
C2403      C2404   1.405       .  A
C2403      F2409   1.358       .  S
C2404      C2405   1.405       .  A
C2405      C2406   1.397       .  A
C2405      F2408   1.358       .  S
C2406      F2410   1.358       .  S
C2413      C2414   1.407       .  A
C2414      C2419   1.480       .  S
C2414      C2415   1.405       .  A
C2415      C2416   1.396       .  A
C2415      F2420   1.358       .  S
C2416      C2417   1.404       .  A
C2418      F2421   1.357   1_455  S
C2419      C2422   1.407       .  A
C2419      C2426   1.403       .  A
C2422      C2423   1.402       .  A
C2422      F2427   1.358       .  S
C2423      C2424   1.405       .  A
C2423      F2429   1.358       .  S
C2424      C2425   1.407       .  A
C2425      C2426   1.396       .  A
C2425      F2428   1.357       .  S
C2426      F2430   1.358       .  S
C2433      C2434   1.407       .  A
C2433      C2438   1.402       .  A
C2433      F2451   1.358       .  S
C2434      C2439   1.481       .  S
C2434      C2435   1.404       .  A
C2436      F2452   1.358   1_455  S
C2437      C2438   1.405       .  A
C2438      F2441   1.358       .  S
C2439      C2442   1.407       .  A
C2439      C2446   1.404       .  A
C2442      C2443   1.401       .  A
C2442      F2447   1.358       .  S
C2443      C2444   1.403       .  A
C2443      F2449   1.358       .  S
C2444      C2445   1.407       .  A
C2445      C2446   1.398       .  A
C2445      F2448   1.358       .  S
C2446      F2450   1.358       .  S
C2453      C2454   1.410       .  A
C2453      C2458   1.402       .  A
C2453      F2471   1.358       .  S
C2454      C2459   1.489       .  S
C2454      C2455   1.408       .  A
C2455      C2456   1.399       .  A
C2455      F2460   1.358       .  S
C2456      C2457   1.404       .  A
C2456      F2472   1.358       .  S
C2457      C2458   1.404       .  A
C2458      F2461   1.358       .  S
C2459      C2462   1.409       .  A
C2459      C2466   1.407       .  A
C2462      C2463   1.402       .  A
C2462      F2467   1.357       .  S
C2463      C2464   1.404       .  A
C2464      C2465   1.407       .  A
C2465      C2466   1.400       .  A
C2465      F2468   1.358       .  S
C2466      F2470   1.358       .  S
C2473      C2474   1.404       .  A
C2473      C2478   1.396       .  A
C2473      F2491   1.358       .  S
C2474      C2479   1.473       .  S
C2474      C2475   1.404       .  A
C2475      C2476   1.398       .  A
C2475      F2480   1.358       .  S
C2476      C2477   1.404       .  A
C2477      C2478   1.404       .  A
C2478      F2481   1.358   1_565  S
C2479      C2482   1.401       .  A
C2479      C2486   1.401       .  A
C2482      C2483   1.397       .  A
C2482      F2487   1.358       .  S
C2483      C2484   1.413       .  A
C2483      F2489   1.358       .  S
C2484      C2485   1.413       .  A
C2485      C2486   1.398       .  A
C2485      F2488   1.358       .  S
C2486      F2490   1.358       .  S
C2493      C2494   1.402       .  A
C2493      C2498   1.393       .  A
C2493      F2511   1.358       .  S
C2494      C2499   1.482       .  S
C2494      C2495   1.407       .  A
C2495      C2496   1.404       .  A
C2495      F2500   1.357       .  S
C2496      C2497   1.410       .  A
C2496      F2512   1.358       .  S
C2497      C2498   1.411       .  A
C2498      F2501   1.358       .  S
C2499      C2502   1.405       .  A
C2499      C2506   1.405       .  A
C2502      C2503   1.402       .  A
C2502      F2507   1.358       .  S
C2503      C2504   1.408       .  A
C2503      F2509   1.357       .  S
C2505      F2508   1.357       .  S
C2513      C2514   1.406       .  A
C2513      C2518   1.396       .  A
C2513      F2531   1.358       .  S
C2514      C2519   1.490       .  S
C2514      C2515   1.409       .  A
C2515      C2516   1.405       .  A
C2515      F2520   1.357       .  S
C2516      C2517   1.409       .  A
C2516      F2532   1.358       .  S
C2517      C2518   1.409       .  A
C2518      F2521   1.358       .  S
C2519      C2522   1.409       .  A
C2519      C2526   1.410       .  A
C2522      C2523   1.403       .  A
C2522      F2527   1.358       .  S
C2523      C2524   1.405       .  A
C2524      C2525   1.400       .  A
C2525      C2526   1.397       .  A
C2525      F2528   1.357   1_565  S
C2526      F2530   1.358   1_565  S
C2533      C2534   1.406       .  A
C2533      C2538   1.396       .  A
C2533      F2551   1.358       .  S
C2534      C2539   1.480       .  S
C2534      C2535   1.405       .  A
C2535      C2536   1.396       .  A
C2535      F2540   1.358       .  S
C2536      C2537   1.408       .  A
C2536      F2552   1.358       .  S
C2537      C2538   1.407       .  A
C2538      F2541   1.358       .  S
C2539      C2542   1.407       .  A
C2539      C2546   1.406       .  A
C2542      C2543   1.399       .  A
C2542      F2547   1.358       .  S
C2543      C2544   1.404       .  A
C2543      F2549   1.357       .  S
C2544      C2545   1.400       .  A
C2545      C2546   1.394       .  A
C2545      F2548   1.354       .  S
C2546      F2550   1.358       .  S
C2553      C2554   1.406       .  A
C2553      F2571   1.358       .  S
C2554      C2559   1.486       .  S
C2555      C2556   1.400       .  A
C2555      F2560   1.358       .  S
C2556      C2557   1.407       .  A
C2556      F2572   1.358       .  S
C2557      C2558   1.409       .  A
C2558      F2561   1.358       .  S
C2559      C2562   1.401       .  A
C2559      C2566   1.407       .  A
C2562      C2563   1.394       .  A
C2562      F2567   1.358       .  S
C2563      C2564   1.412       .  A
C2563      F2569   1.353       .  S
C2564      C2565   1.413       .  A
C2565      C2566   1.406       .  A
C2565      F2568   1.357       .  S
C2573      C2574   1.402       .  A
C2573      C2578   1.395       .  A
C2573      F2591   1.358       .  S
C2574      C2579   1.471   1_565  S
C2574      C2575   1.405       .  A
C2575      C2576   1.396       .  A
C2575      F2580   1.358       .  S
C2576      C2577   1.401       .  A
C2576      F2592   1.356       .  S
C2577      C2578   1.404       .  A
C2578      F2581   1.357       .  S
C2582      C2583   1.397       .  A
C2582      F2587   1.358       .  S
C2583      C2584   1.410       .  A
C2583      F2589   1.358       .  S
C2584      C2585   1.410       .  A
C2585      C2586   1.394       .  A
C2585      F2588   1.358       .  S
C2593      C2594   1.398       .  A
C2593      C2598   1.391       .  A
C2593      F2611   1.358       .  S
C2594      C2599   1.469       .  S
C2594      C2595   1.403       .  A
C2595      C2596   1.403       .  A
C2595      F2600   1.358       .  S
C2596      C2597   1.412       .  A
C2596      F2612   1.358       .  S
C2597      C2598   1.411       .  A
C2598      F2601   1.358       .  S
C2599      C2602   1.403       .  A
C2599      C2606   1.400       .  A
C2602      C2603   1.398       .  A
C2602      F2607   1.358       .  S
C2603      C2604   1.408       .  A
C2603      F2609   1.357       .  S
C2604      C2605   1.407       .  A
C2605      C2606   1.395       .  A
C2605      F2608   1.355       .  S
C2606      F2610   1.358       .  S
C2613      C2614   1.404       .  A
C2613      C2618   1.397       .  A
C2613      F2631   1.358       .  S
C2614      C2619   1.478   1_655  S
C2614      C2615   1.407       .  A
C2615      C2616   1.396       .  A
C2615      F2620   1.358       .  S
C2616      C2617   1.400       .  A
C2616      F2632   1.357       .  S
C2617      C2618   1.404       .  A
C2618      F2621   1.356       .  S
C2619      C2622   1.403       .  A
C2622      F2627   1.358   1_455  S
C2623      C2624   1.407       .  A
C2623      F2629   1.358       .  S
C2624      C2625   1.410       .  A
C2625      C2626   1.399       .  A
C2625      F2628   1.358       .  S
C2626      F2630   1.358       .  S
C2633      C2634   1.402       .  A
C2633      C2638   1.399       .  A
C2633      F2651   1.357       .  S
C2634      C2639   1.475       .  S
C2634      C2635   1.405       .  A
C2635      C2636   1.400       .  A
C2635      F2640   1.358       .  S
C2636      C2637   1.405       .  A
C2636      F2652   1.358       .  S
C2637      C2638   1.406       .  A
C2638      F2641   1.357       .  S
C2639      C2642   1.400       .  A
C2642      F2647   1.358       .  S
C2643      C2644   1.411       .  A
C2643      F2649   1.358       .  S
C2644      C2645   1.414       .  A
C2645      C2646   1.400       .  A
C2645      F2648   1.358       .  S
C2646      F2650   1.358       .  S
C2653      C2654   1.407       .  A
C2653      C2658   1.398       .  A
C2653      F2671   1.358       .  S
C2654      C2659   1.488       .  S
C2654      C2655   1.409       .  A
C2655      C2656   1.400       .  A
C2655      F2660   1.358       .  S
C2656      C2657   1.404       .  A
C2656      F2672   1.358       .  S
C2657      C2658   1.408       .  A
C2658      F2661   1.358       .  S
C2659      C2662   1.408       .  A
C2659      C2666   1.409       .  A
C2662      C2663   1.399       .  A
C2662      F2667   1.358       .  S
C2663      C2664   1.403       .  A
C2663      F2669   1.357       .  S
C2664      C2665   1.403       .  A
C2665      C2666   1.400       .  A
C2665      F2668   1.356       .  S
C2666      F2670   1.358       .  S
C2673      C2674   1.411       .  A
C2673      C2678   1.401       .  A
C2673      F2691   1.357       .  S
C2674      C2675   1.411       .  A
C2675      C2676   1.400       .  A
C2676      C2677   1.403       .  A
C2676      F2692   1.357       .  S
C2677      C2678   1.401       .  A
C2678      F2681   1.356       .  S
C2679      C2682   1.411       .  A
C2679      C2686   1.407       .  A
C2682      C2683   1.404       .  A
C2682      F2687   1.358       .  S
C2683      C2684   1.406       .  A
C2683      F2689   1.357       .  S
C2684      C2685   1.407       .  A
C2685      C2686   1.397       .  A
C2685      F2688   1.357       .  S
C2686      F2690   1.358       .  S
C2693      C2694   1.412       .  A
C2693      C2698   1.400       .  A
C2693      F2711   1.358       .  S
C2694      C2695   1.410       .  A
C2695      C2696   1.398       .  A
C2696      C2697   1.401       .  A
C2696      F2712   1.357       .  S
C2697      C2698   1.401       .  A
C2698      F2701   1.358       .  S
C2699      C2702   1.406       .  A
C2699      C2706   1.405       .  A
C2702      C2703   1.395       .  A
C2702      F2707   1.358       .  S
C2703      C2704   1.409       .  A
C2703      F2709   1.357       .  S
C2704      C2705   1.411       .  A
C2705      C2706   1.397       .  A
C2705      F2708   1.354       .  S
C2706      F2710   1.359       .  S
