geometry optimzed in LAMMPS
_audit_creation_date              2020-11-30 
_audit_creation_method            'lammps2cif' 
_symmetry_space_group_name_H-M    'P1' 
_symmetry_Int_Tables_number       1 
_symmetry_cell_setting            triclinic 
loop_ 
_symmetry_equiv_pos_as_xyz 
  x,y,z 
_cell_length_a                    81.26434589 
_cell_length_b                    81.26998764392305 
_cell_length_c                    45.35472011094089 
_cell_angle_alpha                 90.07995084920597 
_cell_angle_beta                  90.11135107173253 
_cell_angle_gamma                 89.97334590952606 
loop_ 
_atom_site_label 
_atom_site_type_symbol 
_atom_site_fract_x 
_atom_site_fract_y 
_atom_site_fract_z 
_atom_site_charge 
C1          C  0.87084437  0.73370897  0.47922673     0.86500
C2          C  0.85552562  0.74469091  0.48257847    -0.53700
C3          C  0.85979758  0.75433081  0.00816696     0.09400
C4          C  0.87627787  0.75340498  0.02512502     0.20400
C5          C  0.88520138  0.74594538  0.47921726    -0.54400
C6          C  0.88941671  0.75593459  0.00100924     0.09500
C7          C  0.87224037  0.72460267  0.50861577    -0.54000
C8          C  0.87799778  0.73513512  0.03410186     0.10100
H9          H  0.84561287  0.74544519  0.46667200     0.14600
H10         H  0.87716780  0.76219221  0.04382892     0.00400
H11         H  0.89416597  0.74655690  0.46150193     0.14900
H12         H  0.87753724  0.71119574  0.01392113     0.14700
N13         N  0.88636176  0.62789021  0.20914708    -0.36600
N14         N  0.88407401  0.65213696  0.25550351    -0.57100
N15         N  0.88427422  0.62565539  0.29955498    -0.36600
N16         N  0.88446312  0.60133482  0.25315689    -0.57100
C17         C  0.88352183  0.64158510  0.19286968     0.27000
C18         C  0.88352680  0.61474499  0.19154574     0.27000
C19         C  0.88024100  0.63872150  0.31656484     0.27000
C20         C  0.88099478  0.61191071  0.31536707     0.27000
C21         C  0.88685681  0.66243156  0.23264512     0.35600
C22         C  0.88561877  0.66123365  0.28028630     0.35600
C23         C  0.88740426  0.59230343  0.22870595     0.35600
C24         C  0.88655401  0.59111620  0.27640895     0.35600
C25         C  0.87906610  0.63706002  0.16447240    -0.21900
C26         C  0.87907046  0.62013997  0.16363022    -0.21900
C27         C  0.87448841  0.63321077  0.34360685    -0.21900
C28         C  0.87499427  0.61630484  0.34285808    -0.21900
C29         C  0.89011293  0.67815489  0.24294388    -0.22900
C30         C  0.88932591  0.67740000  0.27315098    -0.22900
C31         C  0.89118529  0.57622683  0.23645344    -0.22900
C32         C  0.89067925  0.57548925  0.26668372    -0.22900
C33         C  0.88541787  0.65805668  0.20259190    -0.18300
C34         C  0.88571864  0.59802993  0.19941519    -0.18300
C35         C  0.88397031  0.59552422  0.30620309    -0.18300
C36         C  0.88249294  0.65548538  0.30911572    -0.18300
H37         H  0.87614249  0.64510914  0.14620225     0.14600
H38         H  0.87619424  0.61265967  0.14454110     0.14600
H39         H  0.87046369  0.64060589  0.36210642     0.14600
H40         H  0.87138223  0.60817226  0.36058129     0.14600
H41         H  0.89259027  0.68906576  0.23003705     0.12900
H42         H  0.89105491  0.68763475  0.28813594     0.12900
H43         H  0.89391823  0.56605164  0.22183366     0.12900
H44         H  0.89295464  0.56466111  0.27994899     0.12900
H45         H  0.89161556  0.62747376  0.22999789     0.26200
H46         H  0.89062540  0.62616892  0.27975073     0.26200
C47         C  0.87327616  0.24362243  0.03036834     0.86500
C48         C  0.85789710  0.23257837  0.02807711    -0.53700
C49         C  0.85806334  0.22195816  0.00462790     0.09400
C50         C  0.87239201  0.22438756  0.48535859     0.20400
C51         C  0.88765774  0.23147847  0.03012639    -0.54400
C52         C  0.88780814  0.22095998  0.00671927     0.09500
C53         C  0.87409963  0.25231072  0.00047583    -0.54000
C54         C  0.87380178  0.24290372  0.47826403     0.10100
H55         H  0.84795050  0.23233225  0.04386512     0.14600
H56         H  0.87331179  0.21619080  0.46581309     0.00400
H57         H  0.89689128  0.23105276  0.04748391     0.14900
H58         H  0.87492392  0.26559444  0.99820307     0.14700
N59         N  0.89193609  0.35055327  0.21175001    -0.36600
N60         N  0.88986586  0.32417916  0.25563960    -0.57100
N61         N  0.89429112  0.34825866  0.30253565    -0.36600
N62         N  0.89456185  0.37469220  0.25850848    -0.57100
C63         C  0.88740554  0.33771731  0.19449333     0.27000
C64         C  0.88925950  0.36454183  0.19614339     0.27000
C65         C  0.89008269  0.33484026  0.31856407     0.27000
C66         C  0.89238841  0.36159395  0.32014989     0.27000
C67         C  0.89097253  0.31490955  0.23093660     0.35600
C68         C  0.89163021  0.31375327  0.27867563     0.35600
C69         C  0.89662208  0.38488915  0.23523530     0.35600
C70         C  0.89782298  0.38364201  0.28296388     0.35600
C71         C  0.88196344  0.34359591  0.16748099    -0.21900
C72         C  0.88319846  0.36045984  0.16846334    -0.21900
C73         C  0.88580954  0.33970120  0.34685966    -0.21900
C74         C  0.88725872  0.35654990  0.34785950    -0.21900
C75         C  0.89340003  0.29853317  0.23835958    -0.22900
C76         C  0.89375652  0.29779954  0.26858001    -0.22900
C77         C  0.90116584  0.40040909  0.24502321    -0.22900
C78         C  0.90197691  0.39960230  0.27520504    -0.22900
C79         C  0.88873380  0.32079607  0.20183149    -0.18300
C80         C  0.89297956  0.38080469  0.20556985    -0.18300
C81         C  0.89549181  0.37817460  0.31225985    -0.18300
C82         C  0.89041921  0.31826776  0.30871734    -0.18300
H83         H  0.87762611  0.33647463  0.14884203     0.14600
H84         H  0.88010015  0.36870435  0.15059388     0.14600
H85         H  0.88193667  0.33192953  0.36491958     0.14600
H86         H  0.88473914  0.36421536  0.36685840     0.14600
H87         H  0.89461105  0.28814429  0.22356758     0.12900
H88         H  0.89531739  0.28676396  0.28162399     0.12900
H89         H  0.90327069  0.41132142  0.23193109     0.12900
H90         H  0.90487130  0.40974104  0.28982135     0.12900
H91         H  0.89814616  0.34963866  0.23168590     0.26200
H92         H  0.89956234  0.34820806  0.28171320     0.26200
O93         O  0.90313064  0.47301182  0.03697475    -0.74400
O94         O  0.89977732  0.50523948  0.47605212    -0.74400
O95         O  0.90187161  0.50629273  0.03322144    -0.74500
O96         O  0.90196452  0.47186298  0.47790694    -0.74500
O97         O  0.87459187  0.47036724  0.47605062    -0.74500
O98         O  0.87448176  0.50506907  0.03423857    -0.74400
O99         O  0.87241669  0.50355295  0.47452817    -0.74400
O100        O  0.87575141  0.47189504  0.03731896    -0.74500
Ni101      Ni  0.90321890  0.48868741  0.00515611     1.25400
Ni102      Ni  0.87388317  0.48764780  0.00590745     1.25400
C103        C  0.88970268  0.46732682  0.04777102     0.87800
C104        C  0.88592202  0.50976501  0.46512569     0.87700
C105        C  0.88803151  0.51140345  0.04317872     0.87700
C106        C  0.88878205  0.46553298  0.46729769     0.87900
C107        C  0.75210341  0.85534605  0.03212851     0.86500
C108        C  0.76336148  0.84039858  0.02805288    -0.53700
C109        C  0.77372044  0.84157637  0.00445267     0.09400
C110        C  0.77044639  0.86072321  0.48232276     0.20400
C111        C  0.76408393  0.86982119  0.03361682    -0.54400
C112        C  0.77411775  0.87169326  0.00963974     0.09500
C113        C  0.74310456  0.85711839  0.00269962    -0.54000
C114        C  0.75186966  0.86243152  0.47512603     0.10100
H115        H  0.76402454  0.83009044  0.04310391     0.14600
H116        H  0.77861177  0.86137433  0.46276968     0.00400
H117        H  0.76452321  0.87764521  0.05294383     0.14900
H118        H  0.72976631  0.85705867  0.00083630     0.14700
N119        N  0.64225127  0.86564750  0.20852781    -0.36600
N120        N  0.66893941  0.86555618  0.25217687    -0.57100
N121        N  0.64511771  0.87159454  0.29812084    -0.36600
N122        N  0.61837515  0.87011048  0.25448386    -0.57100
C123        C  0.65498080  0.86040042  0.19189134     0.27000
C124        C  0.62829342  0.86270547  0.19306885     0.27000
C125        C  0.65865436  0.86792482  0.31439453     0.27000
C126        C  0.63186372  0.86984277  0.31588714     0.27000
C127        C  0.67782930  0.86637448  0.22713034     0.35600
C128        C  0.67942587  0.86910935  0.27445317     0.35600
C129        C  0.60809013  0.87143476  0.23111341     0.35600
C130        C  0.60952435  0.87409804  0.27860824     0.35600
C131        C  0.64908980  0.85411269  0.16545287    -0.21900
C132        C  0.63224071  0.85558957  0.16617520    -0.21900
C133        C  0.65392859  0.86400907  0.34288451    -0.21900
C134        C  0.63706442  0.86527590  0.34386064    -0.21900
C135        C  0.69404895  0.87033607  0.23351027    -0.22900
C136        C  0.69504915  0.87211343  0.26353499    -0.22900
C137        C  0.59256861  0.87615324  0.24045193    -0.22900
C138        C  0.59346178  0.87780833  0.27055980    -0.22900
C139        C  0.67179596  0.86252691  0.19878674    -0.18300
C140        C  0.61221688  0.86722984  0.20179917    -0.18300
C141        C  0.61524016  0.87281085  0.30797973    -0.18300
C142        C  0.67521272  0.86872561  0.30460301    -0.18300
H143        H  0.65621401  0.84926773  0.14726153     0.14600
H144        H  0.62389436  0.85204292  0.14866813     0.14600
H145        H  0.66180670  0.86056986  0.36113101     0.14600
H146        H  0.62949628  0.86305496  0.36305555     0.14600
H147        H  0.70414254  0.87167094  0.21816096     0.12900
H148        H  0.70603825  0.87517835  0.27588236     0.12900
H149        H  0.58165089  0.87783231  0.22708095     0.12900
H150        H  0.58334120  0.88101749  0.28494641     0.12900
H151        H  0.64327146  0.87273507  0.22748556     0.26200
H152        H  0.64502128  0.87663509  0.27708847     0.26200
C153        C  0.26125381  0.85993774  0.47624938     0.86500
C154        C  0.24761191  0.84679534  0.47628915    -0.53700
C155        C  0.23654197  0.84485888  0.99952787     0.09400
C156        C  0.23992974  0.85949268  0.02038966     0.20400
C157        C  0.25169469  0.87623063  0.47515810    -0.54400
C158        C  0.23968476  0.87448224  0.99941411     0.09500
C159        C  0.26884284  0.85619444  0.00709284    -0.54000
C160        C  0.25810307  0.85750358  0.02998480     0.10100
H161        H  0.24642017  0.83710958  0.46008111     0.14600
H162        H  0.23116165  0.86029788  0.03901945     0.00400
H163        H  0.25346843  0.88526531  0.45783326     0.14900
H164        H  0.28204237  0.85494049  0.01029244     0.14700
N165        N  0.36519374  0.86610573  0.20470737    -0.36600
N166        N  0.39218418  0.86769847  0.24806461    -0.57100
N167        N  0.36858019  0.86548259  0.29491680    -0.36600
N168        N  0.34169772  0.86183441  0.25189092    -0.57100
C169        C  0.37833399  0.86468356  0.18659017     0.27000
C170        C  0.35155632  0.86250851  0.18868311     0.27000
C171        C  0.38275583  0.86354506  0.31029145     0.27000
C172        C  0.35626669  0.85994422  0.31222194     0.27000
C173        C  0.40075828  0.87067512  0.22318827     0.35600
C174        C  0.40241909  0.87106071  0.27085527     0.35600
C175        C  0.33088957  0.86323250  0.22931630     0.35600
C176        C  0.33276403  0.86239328  0.27695019     0.35600
C177        C  0.37294867  0.86047821  0.15852391    -0.21900
C178        C  0.35608146  0.85919863  0.15980417    -0.21900
C179        C  0.37937332  0.85673794  0.33762351    -0.21900
C180        C  0.36265994  0.85448966  0.33886217    -0.21900
C181        C  0.41656559  0.87583613  0.23022479    -0.22900
C182        C  0.41756659  0.87621004  0.26042385    -0.22900
C183        C  0.31497540  0.86431509  0.24009872    -0.22900
C184        C  0.31616860  0.86386344  0.27029177    -0.22900
C185        C  0.39498355  0.86779125  0.19420200    -0.18300
C186        C  0.33509429  0.86267568  0.19908668    -0.18300
C187        C  0.33929074  0.86079624  0.30569871    -0.18300
C188        C  0.39861211  0.86832242  0.30082973    -0.18300
H189        H  0.38038122  0.85867294  0.13900645     0.14600
H190        H  0.34808684  0.85616788  0.14147847     0.14600
H191        H  0.38804147  0.85371573  0.35493842     0.14600
H192        H  0.35594549  0.84949216  0.35739124     0.14600
H193        H  0.42640733  0.87891291  0.21516303     0.12900
H194        H  0.42831451  0.87959197  0.27318094     0.12900
H195        H  0.30367310  0.86524511  0.22754699     0.12900
H196        H  0.30596114  0.86439382  0.28555539     0.12900
H197        H  0.36542878  0.87074632  0.22598030     0.26200
H198        H  0.36711344  0.87206248  0.27547213     0.26200
O199        O  0.52180416  0.88054543  0.03088664    -0.74400
O200        O  0.48834079  0.88395186  0.47229094    -0.74400
O201        O  0.48845154  0.88035806  0.03065292    -0.74500
O202        O  0.52183551  0.88482349  0.47280133    -0.74500
O203        O  0.52261940  0.85742158  0.47207186    -0.74500
O204        O  0.48862064  0.85294026  0.03149992    -0.74400
O205        O  0.48941401  0.85654732  0.47074520    -0.74400
O206        O  0.52184736  0.85313760  0.03172640    -0.74500
Ni207      Ni  0.50507681  0.88112734  0.00084349     1.25400
Ni208      Ni  0.50526790  0.85177286  0.00168526     1.25400
C209        C  0.52727466  0.86694480  0.04136938     0.87800
C210        C  0.48348460  0.87020184  0.46141430     0.87700
C211        C  0.48309948  0.86672453  0.04104001     0.87700
C212        C  0.52778685  0.87134737  0.46266777     0.87900
C213        C  0.75021793  0.11872721  0.47989650     0.86500
C214        C  0.76147506  0.13385728  0.48138080    -0.53700
C215        C  0.77131453  0.13445962  0.50575721     0.09400
C216        C  0.76805794  0.12088545  0.02669497     0.20400
C217        C  0.76222898  0.10416769  0.48247122    -0.54400
C218        C  0.77218058  0.10462704  0.50673655     0.09500
C219        C  0.74075964  0.11893310  0.50899748    -0.54000
C220        C  0.74922816  0.12125669  0.03189481     0.10100
H221        H  0.76203453  0.14308647  0.46409898     0.14600
H222        H  0.77563232  0.12128744  0.04709551     0.00400
H223        H  0.76379480  0.09474544  0.46581477     0.14900
H224        H  0.72740199  0.11905841  0.51010103     0.14700
N225        N  0.64117650  0.12043585  0.30071060    -0.36600
N226        N  0.61694915  0.11645991  0.25454462    -0.57100
N227        N  0.64315094  0.11848569  0.21050246    -0.36600
N228        N  0.66756580  0.12049136  0.25648977    -0.57100
C229        C  0.62770264  0.11718776  0.31722749     0.27000
C230        C  0.65447988  0.11855006  0.31831761     0.27000
C231        C  0.63043636  0.11342009  0.19350914     0.27000
C232        C  0.65704130  0.11655504  0.19444665     0.27000
C233        C  0.60653509  0.11839999  0.27747447     0.35600
C234        C  0.60762698  0.11681411  0.22990335     0.35600
C235        C  0.67658571  0.12343768  0.28094244     0.35600
C236        C  0.67753031  0.12347834  0.23326966     0.35600
C237        C  0.63248953  0.11365872  0.34588936    -0.21900
C238        C  0.64937136  0.11443891  0.34655044    -0.21900
C239        C  0.63629692  0.10836597  0.16625083    -0.21900
C240        C  0.65307617  0.11028617  0.16688447    -0.21900
C241        C  0.59047891  0.11971048  0.26739353    -0.22900
C242        C  0.59116555  0.11870096  0.23723489    -0.22900
C243        C  0.69242232  0.12807561  0.27326530    -0.22900
C244        C  0.69297208  0.12827122  0.24304838    -0.22900
C245        C  0.61117135  0.11780651  0.30745086    -0.18300
C246        C  0.67106820  0.12119144  0.31014232    -0.18300
C247        C  0.67313219  0.12097512  0.20344675    -0.18300
C248        C  0.61359860  0.11444284  0.20099100    -0.18300
H249        H  0.62465819  0.11078499  0.36445295     0.14600
H250        H  0.65700293  0.11232421  0.36576225     0.14600
H251        H  0.62922731  0.10391013  0.14764533     0.14600
H252        H  0.66139667  0.10745627  0.14897407     0.14600
H253        H  0.57939966  0.12099492  0.28040434     0.12900
H254        H  0.58069856  0.11904992  0.22245564     0.12900
H255        H  0.70253182  0.13102637  0.28791769     0.12900
H256        H  0.70360149  0.13139998  0.22987152     0.12900
H257        H  0.64124295  0.12523381  0.27956087     0.26200
H258        H  0.64217328  0.12481124  0.23030044     0.26200
C259        C  0.25992242  0.11752673  0.02932130     0.86500
C260        C  0.24813695  0.13233649  0.03157086    -0.53700
C261        C  0.23774764  0.13403564  0.00793755     0.09400
C262        C  0.23793582  0.11882332  0.48449067     0.20400
C263        C  0.24839949  0.10280608  0.02384914    -0.54400
C264        C  0.23791729  0.10458153  0.00060668     0.09500
C265        C  0.26884415  0.11996074  0.00006057    -0.54000
C266        C  0.25652188  0.11953710  0.47779440     0.10100
H267        H  0.24770456  0.14045570  0.05059665     0.14600
H268        H  0.22997561  0.11996594  0.46466674     0.00400
H269        H  0.24717403  0.09227658  0.03815691     0.14900
H270        H  0.28217507  0.12019483  0.99823220     0.14700
N271        N  0.36363308  0.11479038  0.30312585    -0.36600
N272        N  0.39059956  0.11057430  0.26042030    -0.57100
N273        N  0.36684936  0.11023188  0.21340281    -0.36600
N274        N  0.33973175  0.11210238  0.25596512    -0.57100
C275        C  0.37646624  0.11218877  0.32159103     0.27000
C276        C  0.34965447  0.11338039  0.31917258     0.27000
C277        C  0.38058957  0.10595603  0.19838002     0.27000
C278        C  0.35384931  0.10675021  0.19589867     0.27000
C279        C  0.39943999  0.11384697  0.28492917     0.35600
C280        C  0.40112809  0.11183775  0.23747145     0.35600
C281        C  0.32925522  0.11570610  0.27820987     0.35600
C282        C  0.33106132  0.11369761  0.23067666     0.35600
C283        C  0.37059307  0.10936490  0.34983849    -0.21900
C284        C  0.35370094  0.11013113  0.34832061    -0.21900
C285        C  0.37626083  0.09964620  0.17105022    -0.21900
C286        C  0.35937114  0.10015936  0.16946083    -0.21900
C287        C  0.41571177  0.11696639  0.27753931    -0.22900
C288        C  0.41676127  0.11573907  0.24743309    -0.22900
C289        C  0.31376654  0.11921740  0.26702285    -0.22900
C290        C  0.31491684  0.11797527  0.23690677    -0.22900
C291        C  0.39335469  0.11308751  0.31405355    -0.18300
C292        C  0.33335736  0.11548640  0.30853691    -0.18300
C293        C  0.33726438  0.11063667  0.20208737    -0.18300
C294        C  0.39693391  0.10875439  0.20778634    -0.18300
H295        H  0.37773736  0.10708147  0.36958118     0.14600
H296        H  0.34535507  0.10846573  0.36664484     0.14600
H297        H  0.38443932  0.09536458  0.15385967     0.14600
H298        H  0.35200040  0.09635557  0.15075511     0.14600
H299        H  0.42580157  0.11978878  0.29231701     0.12900
H300        H  0.42778512  0.11739206  0.23441681     0.12900
H301        H  0.30279678  0.12242567  0.27924656     0.12900
H302        H  0.30497523  0.11993239  0.22138501     0.12900
H303        H  0.36448497  0.11892875  0.28158541     0.26200
H304        H  0.36639850  0.11721981  0.23254794     0.26200
O305        O  0.48836506  0.09679062  0.03824228    -0.74400
O306        O  0.51993543  0.09927869  0.47470084    -0.74400
O307        O  0.52173875  0.09769820  0.03487198    -0.74500
O308        O  0.48668431  0.09914449  0.47802013    -0.74500
O309        O  0.48647733  0.12657157  0.47796282    -0.74500
O310        O  0.52051188  0.12506156  0.03711396    -0.74400
O311        O  0.51960116  0.12668797  0.47481256    -0.74400
O312        O  0.48719065  0.12418149  0.03873697    -0.74500
Ni313      Ni  0.50420858  0.09673955  0.00657134     1.25400
Ni314      Ni  0.50339194  0.12607387  0.00826955     1.25400
C315        C  0.48245191  0.11022964  0.04873133     0.87800
C316        C  0.52497295  0.11306198  0.46434083     0.87700
C317        C  0.52693444  0.11141025  0.04529345     0.87700
C318        C  0.48094128  0.11281832  0.46839690     0.87900
C319        C  0.13541106  0.73545420  0.03262351     0.86500
C320        C  0.14899547  0.74850517  0.03251226    -0.53700
C321        C  0.14860989  0.75905290  0.00907201     0.09400
C322        C  0.13719586  0.75502762  0.48897278     0.20400
C323        C  0.11950441  0.74564786  0.03034245    -0.54400
C324        C  0.11886682  0.75599289  0.00663153     0.09500
C325        C  0.13695201  0.72666991  0.00302033    -0.54000
C326        C  0.13987954  0.73638300  0.48304708     0.10100
H327        H  0.15804201  0.74945668  0.05000708     0.14600
H328        H  0.13672334  0.76255589  0.46862081     0.00400
H329        H  0.10997167  0.74560238  0.04704344     0.14900
H330        H  0.13780529  0.71336976  0.00101076     0.14700
N331        N  0.14338064  0.62760413  0.21242952    -0.36600
N332        N  0.14083764  0.65395092  0.25742009    -0.57100
N333        N  0.13954949  0.62922838  0.30291908    -0.36600
N334        N  0.13979517  0.60296310  0.25788351    -0.57100
C335        C  0.14163599  0.64089699  0.19481580     0.27000
C336        C  0.14155975  0.61403488  0.19528432     0.27000
C337        C  0.13682402  0.64286098  0.31948278     0.27000
C338        C  0.13566348  0.61603179  0.31964624     0.27000
C339        C  0.14309364  0.66332559  0.23318415     0.35600
C340        C  0.14166642  0.66419228  0.28097233     0.35600
C341        C  0.14225528  0.59269637  0.23480283     0.35600
C342        C  0.14002187  0.59354876  0.28237648     0.35600
C343        C  0.13926238  0.63567762  0.16592644    -0.21900
C344        C  0.13922488  0.61878833  0.16624025    -0.21900
C345        C  0.13137399  0.63821490  0.34719658    -0.21900
C346        C  0.13063588  0.62132981  0.34730268    -0.21900
C347        C  0.14507967  0.67966286  0.24136750    -0.22900
C348        C  0.14430122  0.68018853  0.27160136    -0.22900
C349        C  0.14380572  0.57663904  0.24464742    -0.22900
C350        C  0.14244198  0.57717818  0.27477896    -0.22900
C351        C  0.14247290  0.65764336  0.20365213    -0.18300
C352        C  0.14219965  0.59744796  0.20483743    -0.18300
C353        C  0.13729230  0.59928415  0.31142118    -0.18300
C354        C  0.13948696  0.65940207  0.31074406    -0.18300
H355        H  0.13769916  0.64322933  0.14648648     0.14600
H356        H  0.13758549  0.61092917  0.14717627     0.14600
H357        H  0.12818619  0.64616824  0.36547779     0.14600
H358        H  0.12686733  0.61380410  0.36576496     0.14600
H359        H  0.14684904  0.69015212  0.22704382     0.12900
H360        H  0.14537156  0.69114000  0.28506358     0.12900
H361        H  0.14560681  0.56566153  0.23150182     0.12900
H362        H  0.14299639  0.56667156  0.28938898     0.12900
H363        H  0.14689955  0.62787204  0.23434331     0.26200
H364        H  0.14543114  0.62879816  0.28271332     0.26200
C365        C  0.13709806  0.24338662  0.47667119     0.86500
C366        C  0.15025656  0.22993801  0.47796298    -0.53700
C367        C  0.14984254  0.22067567  0.50295185     0.09400
C368        C  0.13624379  0.22483775  0.02493872     0.20400
C369        C  0.12075136  0.23421001  0.48162233    -0.54400
C370        C  0.12024589  0.22490159  0.50667915     0.09500
C371        C  0.13949594  0.25337484  0.50503596    -0.54000
C372        C  0.13914591  0.24349051  0.02927821     0.10100
H373        H  0.15915001  0.22785359  0.46048707     0.14600
H374        H  0.13663764  0.21767860  0.04575803     0.00400
H375        H  0.11043767  0.23444789  0.46662245     0.14900
H376        H  0.14125165  0.26663018  0.50514295     0.14700
N377        N  0.14259986  0.35166767  0.29870105    -0.36600
N378        N  0.14218037  0.32558734  0.25364553    -0.57100
N379        N  0.13957421  0.35028114  0.20851044    -0.36600
N380        N  0.13791028  0.37618975  0.25342094    -0.57100
C381        C  0.14090618  0.33814860  0.31574127     0.27000
C382        C  0.13868949  0.36486749  0.31557296     0.27000
C383        C  0.13706705  0.33654938  0.19214938     0.27000
C384        C  0.13489003  0.36327703  0.19194612     0.27000
C385        C  0.14626509  0.31659434  0.27755178     0.35600
C386        C  0.14480134  0.31582902  0.22993599     0.35600
C387        C  0.13980417  0.38640416  0.27673064     0.35600
C388        C  0.13864960  0.38570441  0.22908948     0.35600
C389        C  0.13611258  0.34283778  0.34389456    -0.21900
C390        C  0.13481377  0.35969347  0.34382255    -0.21900
C391        C  0.13067971  0.34091359  0.16487510    -0.21900
C392        C  0.12939994  0.35778535  0.16468473    -0.21900
C393        C  0.15136272  0.30101260  0.26904321    -0.22900
C394        C  0.15050943  0.30055270  0.23885091    -0.22900
C395        C  0.14134650  0.40252076  0.26721066    -0.22900
C396        C  0.14067251  0.40207607  0.23700167    -0.22900
C397        C  0.14425359  0.32175176  0.30705788    -0.18300
C398        C  0.13916970  0.38150421  0.30653932    -0.18300
C399        C  0.13662589  0.38000468  0.19987926    -0.18300
C400        C  0.14135864  0.32030278  0.20047519    -0.18300
H401        H  0.13384491  0.33495054  0.36265974     0.14600
H402        H  0.13137042  0.36725596  0.36247771     0.14600
H403        H  0.12747858  0.33280689  0.14680266     0.14600
H404        H  0.12506558  0.36517834  0.14641890     0.14600
H405        H  0.15520243  0.29098287  0.28315188     0.12900
H406        H  0.15363947  0.29011955  0.22511202     0.12900
H407        H  0.14268438  0.41347057  0.28061276     0.12900
H408        H  0.14135863  0.41263879  0.22254614     0.12900
H409        H  0.14776282  0.35193412  0.27780157     0.26200
H410        H  0.14608581  0.35098862  0.22816873     0.26200
O411        O  0.12561847  0.50567250  0.03746935    -0.74400
O412        O  0.12086858  0.47337061  0.47304840    -0.74400
O413        O  0.12540769  0.47243891  0.03527403    -0.74500
O414        O  0.11999293  0.50667076  0.47578411    -0.74500
O415        O  0.14740310  0.50735153  0.47684998    -0.74500
O416        O  0.15281702  0.47208808  0.03429500    -0.74400
O417        O  0.14826625  0.47407051  0.47376623    -0.74400
O418        O  0.15301830  0.50551544  0.03621130    -0.74500
Ni419      Ni  0.12413110  0.48952333  0.00669361     1.25400
Ni420      Ni  0.15347793  0.48931316  0.00532147     1.25400
C421        C  0.13949698  0.51098796  0.04699762     0.87800
C422        C  0.13478031  0.46846200  0.46302592     0.87700
C423        C  0.13913375  0.46658032  0.04429207     0.87700
C424        C  0.13364322  0.51281072  0.46704718     0.87900
O425        O  0.14773723  0.00597512  0.46576417    -0.74400
O426        O  0.11604231  0.97103919  0.46879956    -0.74400
O427        O  0.11433692  0.00454935  0.46800968    -0.74500
O428        O  0.14927930  0.97241672  0.46722790    -0.74500
O429        O  0.15303226  0.97317228  0.02726643    -0.74500
O430        O  0.11923700  0.00590145  0.02778251    -0.74400
O431        O  0.11981431  0.97272980  0.02828545    -0.74400
O432        O  0.15242320  0.00681063  0.02605328    -0.74500
Ni433      Ni  0.13182573  0.98847206  0.46562220     1.25400
Ni434      Ni  0.13621361  0.98967773  0.02908286     1.25400
C435        C  0.15704827  0.01260377  0.00108688     0.87800
C436        C  0.11442735  0.96676444  0.00393932     0.87700
C437        C  0.11301085  0.01099090  0.00350833     0.87700
C438        C  0.15817472  0.96736466  0.00269096     0.87900
O439        O  0.98871332  0.10364594  0.03411325    -0.74400
O440        O  0.02081238  0.13799212  0.04062569    -0.74400
O441        O  0.98725752  0.13692440  0.03707592    -0.74500
O442        O  0.02188491  0.10465562  0.03693116    -0.74500
O443        O  0.02104587  0.10751245  0.48320710    -0.74500
O444        O  0.98838207  0.14124310  0.48613868    -0.74400
O445        O  0.02162407  0.14092123  0.48718012    -0.74400
O446        O  0.98781567  0.10790265  0.48292682    -0.74500
Ni447      Ni  0.00462971  0.12081123  0.03895585     1.25400
Ni448      Ni  0.00474652  0.12448043  0.48312271     1.25400
C449        C  0.98403110  0.09861982  0.00866024     0.87800
C450        C  0.02670703  0.14450923  0.01723986     0.87700
C451        C  0.98211690  0.14275089  0.01241076     0.87700
C452        C  0.02791489  0.09996249  0.01218074     0.87900
O453        O  0.98814174  0.87310930  0.47941812    -0.74400
O454        O  0.01971235  0.83814995  0.47876253    -0.74400
O455        O  0.98613168  0.83979979  0.48012000    -0.74500
O456        O  0.02132402  0.87110223  0.47836276    -0.74500
O457        O  0.02073842  0.87588719  0.02627631    -0.74500
O458        O  0.98702454  0.84307305  0.02543586    -0.74400
O459        O  0.02041844  0.84257690  0.02741377    -0.74400
O460        O  0.98755798  0.87636937  0.02416498    -0.74500
Ni461      Ni  0.00375547  0.85546396  0.47744601     1.25400
Ni462      Ni  0.00388911  0.85946980  0.02755927     1.25400
C463        C  0.98261029  0.88182279  0.99915721     0.87800
C464        C  0.02649971  0.83710870  0.00328327     0.87700
C465        C  0.98164856  0.83752953  0.00078091     0.87700
C466        C  0.02686957  0.88088451  0.00189069     0.87900
O467        O  0.85965969  0.97328938  0.48173877    -0.74400
O468        O  0.89171449  0.00764610  0.48315279    -0.74400
O469        O  0.89294181  0.97438202  0.48184546    -0.74500
O470        O  0.85861138  0.00677984  0.48356432    -0.74500
O471        O  0.85665168  0.00671955  0.02745900    -0.74500
O472        O  0.89021139  0.97384356  0.02350910    -0.74400
O473        O  0.89004242  0.00696442  0.02581155    -0.74400
O474        O  0.85688230  0.97340206  0.02494172    -0.74500
Ni475      Ni  0.87568865  0.99052697  0.48085835     1.25400
Ni476      Ni  0.87343210  0.99019506  0.02714670     1.25400
C477        C  0.85159554  0.96784952  0.00021822     0.87800
C478        C  0.89531822  0.01295622  0.00145108     0.87700
C479        C  0.89576031  0.96906672  0.99849197     0.87700
C480        C  0.85092528  0.01277126  0.00351270     0.87900
C481        C  0.94330047  0.91731516  0.94453519    -0.17800
C482        C  0.93118297  0.92958045  0.94440590    -0.20000
C483        C  0.92641905  0.93727289  0.97078583     0.20700
C484        C  0.93408510  0.93267890  0.99749232    -0.02900
C485        C  0.94627573  0.92030865  0.99762789    -0.06000
C486        C  0.95085997  0.91252543  0.97104867     0.21000
C487        C  0.95375586  0.91563691  0.02443911     0.19100
C488        C  0.94921591  0.92349892  0.05074139    -0.17400
C489        C  0.93717468  0.93575495  0.05060135    -0.19700
C490        C  0.92946204  0.94031667  0.02416716     0.20600
C491        C  0.91707261  0.95225547  0.02408705    -0.32700
C492        C  0.90914051  0.95673375  0.99772140     0.01300
C493        C  0.91401614  0.94932650  0.97104131    -0.24000
C494        C  0.96282183  0.90002757  0.97153536    -0.28600
C495        C  0.97016170  0.89515411  0.99831401     0.07000
C496        C  0.96557743  0.90311185  0.02459879    -0.27300
H497        H  0.94668732  0.91150014  0.92390866     0.11700
H498        H  0.92545982  0.93297271  0.92368966     0.12800
H499        H  0.95490769  0.92008989  0.07147757     0.11900
H500        H  0.93379047  0.94157177  0.07123176     0.11100
H501        H  0.91355157  0.95800522  0.04471708     0.16500
H502        H  0.90801800  0.95275022  0.95058077     0.12400
H503        H  0.96628113  0.89399848  0.95113497     0.15300
H504        H  0.97122075  0.89956827  0.04531722     0.15100
C505        C  0.93936113  0.04250784  0.05514081    -0.17800
C506        C  0.95185271  0.05433432  0.05607725    -0.20000
C507        C  0.95576577  0.06351979  0.03086202     0.20700
C508        C  0.94725331  0.06050942  0.00425870    -0.02900
C509        C  0.93460106  0.04857913  0.00333002    -0.06000
C510        C  0.93054445  0.03967167  0.02898683     0.21000
C511        C  0.92590402  0.04570734  0.97685381     0.19100
C512        C  0.92699428  0.05731271  0.45608379    -0.17400
C513        C  0.93908934  0.06955521  0.45570104    -0.19700
C514        C  0.95121835  0.06956606  0.97870530     0.20600
C515        C  0.96348347  0.08175348  0.98004820    -0.32700
C516        C  0.97170746  0.08515643  0.00672432     0.01300
C517        C  0.96787078  0.07581549  0.03193280    -0.24000
C518        C  0.91767779  0.02816997  0.02814734    -0.28600
C519        C  0.90878875  0.02532120  0.00195419     0.07000
C520        C  0.91309939  0.03406886  0.97630112    -0.27300
H521        H  0.93648391  0.03568675  0.07498196     0.11700
H522        H  0.95834823  0.05641317  0.07663275     0.12800
H523        H  0.91973196  0.05516151  0.43639234     0.11900
H524        H  0.94091034  0.07662865  0.43574088     0.11100
H525        H  0.96269854  0.09229997  0.46108960     0.16500
H526        H  0.97423864  0.07817922  0.05253162     0.12400
H527        H  0.91463320  0.02137956  0.04795381     0.15300
H528        H  0.90640682  0.03193343  0.95595805     0.15100
C529        C  0.07571355  0.04687307  0.06072783    -0.17800
C530        C  0.06396270  0.05943319  0.06206879    -0.20000
C531        C  0.05783718  0.06655553  0.03610724     0.20700
C532        C  0.06339041  0.06073678  0.00850476    -0.02900
C533        C  0.07521298  0.04802527  0.00714724    -0.06000
C534        C  0.08151487  0.04120284  0.03340143     0.21000
C535        C  0.08087574  0.04230941  0.97954681     0.19100
C536        C  0.06823675  0.04700324  0.44578888    -0.17400
C537        C  0.05675168  0.05979169  0.44790575    -0.19700
C538        C  0.05727079  0.06772678  0.98225300     0.20600
C539        C  0.04188358  0.07997742  0.47756395    -0.32700
C540        C  0.04033861  0.08662219  0.01116235     0.01300
C541        C  0.04633434  0.07943607  0.03726407    -0.24000
C542        C  0.09366879  0.02899201  0.03191207    -0.28600
C543        C  0.09967993  0.02345528  0.00451134     0.07000
C544        C  0.09303596  0.03004094  0.97840032    -0.27300
H545        H  0.08037632  0.04168855  0.08109583     0.11700
H546        H  0.05977290  0.06367713  0.08343342     0.12800
H547        H  0.07088938  0.04176959  0.42433311     0.11900
H548        H  0.05076696  0.06415939  0.42803198     0.11100
H549        H  0.03589356  0.08448278  0.45778280     0.16500
H550        H  0.04208448  0.08386669  0.05847964     0.12400
H551        H  0.09857132  0.02393098  0.05221054     0.15300
H552        H  0.09748450  0.02580806  0.95718816     0.15100
C553        C  0.05293165  0.92939116  0.04748445    -0.17800
C554        C  0.06526886  0.94136507  0.04790230    -0.20000
C555        C  0.07760221  0.94138408  0.02631419     0.20700
C556        C  0.07748803  0.92926425  0.00397198    -0.02900
C557        C  0.06504222  0.91718395  0.00355088    -0.06000
C558        C  0.05273401  0.91724991  0.02546771     0.21000
C559        C  0.06486214  0.90511389  0.98112926     0.19100
C560        C  0.07469029  0.90264141  0.45393554    -0.17400
C561        C  0.08630420  0.91530788  0.45245853    -0.19700
C562        C  0.08973136  0.92928481  0.98194041     0.20600
C563        C  0.10181288  0.94158490  0.98212404    -0.32700
C564        C  0.10196832  0.95365203  0.00434851     0.01300
C565        C  0.08996105  0.95339358  0.02653274    -0.24000
C566        C  0.04039861  0.90522265  0.02490930    -0.28600
C567        C  0.04001821  0.89333669  0.00241276     0.07000
C568        C  0.05225489  0.89334256  0.98056822    -0.27300
H569        H  0.04352154  0.92964083  0.06437206     0.11700
H570        H  0.06514582  0.95063722  0.06509150     0.12800
H571        H  0.07442648  0.89342684  0.43665158     0.11900
H572        H  0.09479865  0.91561832  0.43408263     0.11100
H573        H  0.10680233  0.94099935  0.45451159     0.16500
H574        H  0.09001510  0.96278997  0.04353322     0.12400
H575        H  0.03091396  0.90526771  0.04169566     0.15300
H576        H  0.05206026  0.88406096  0.96337099     0.15100
C577        C  0.16645818  0.43308242  0.39468689    -0.17800
C578        C  0.16709534  0.42075793  0.37314818    -0.20000
C579        C  0.15255208  0.41378305  0.36205614     0.20700
C580        C  0.13719032  0.41935910  0.37263836    -0.02900
C581        C  0.13655683  0.43175605  0.39447649    -0.06000
C582        C  0.15126853  0.43860121  0.40559526     0.21000
C583        C  0.12122010  0.43720924  0.40530149     0.19100
C584        C  0.10666446  0.43034198  0.39398656    -0.17400
C585        C  0.10728218  0.41811392  0.37225252    -0.19700
C586        C  0.12246551  0.41250350  0.36150460     0.20600
C587        C  0.12320473  0.40014970  0.33988486    -0.32700
C588        C  0.13846404  0.39451100  0.32951023     0.01300
C589        C  0.15308185  0.40133289  0.34060506    -0.24000
C590        C  0.15055968  0.45071969  0.42762957    -0.28600
C591        C  0.13533421  0.45607009  0.43893059     0.07000
C592        C  0.12070632  0.44931770  0.42741553    -0.27300
H593        H  0.17786752  0.43823304  0.40295456     0.11700
H594        H  0.17897689  0.41665290  0.36520688     0.12800
H595        H  0.09478523  0.43439544  0.40202134     0.11900
H596        H  0.09587249  0.41299220  0.36393000     0.11100
H597        H  0.11196846  0.39484190  0.33114077     0.16500
H598        H  0.16481737  0.39695508  0.33238624     0.12400
H599        H  0.16191469  0.45585831  0.43618325     0.15300
H600        H  0.10890150  0.45335987  0.43583699     0.15100
C601        C  0.16730351  0.41315219  0.12792848    -0.17800
C602        C  0.16775344  0.42535587  0.10623755    -0.20000
C603        C  0.15321558  0.43318196  0.09712043     0.20700
C604        C  0.13805717  0.42859729  0.10989057    -0.02900
C605        C  0.13760294  0.41635063  0.13183844    -0.06000
C606        C  0.15231730  0.40861391  0.14088380     0.21000
C607        C  0.12244594  0.41193606  0.14486621     0.19100
C608        C  0.10790368  0.41967451  0.13563853    -0.17400
C609        C  0.10834950  0.43174994  0.11376200    -0.19700
C610        C  0.12335251  0.43631665  0.10088177     0.20600
C611        C  0.12388844  0.44856472  0.07929672    -0.32700
C612        C  0.13893738  0.45336392  0.06664444     0.01300
C613        C  0.15356664  0.44556832  0.07560331    -0.24000
C614        C  0.15177727  0.39656536  0.16287450    -0.28600
C615        C  0.13676706  0.39229654  0.17597066     0.07000
C616        C  0.12213967  0.39993885  0.16700222    -0.27300
H617        H  0.17869131  0.40731255  0.13467316     0.11700
H618        H  0.17948251  0.42870644  0.09664797     0.12800
H619        H  0.09618963  0.41641293  0.14538643     0.11900
H620        H  0.09695967  0.43758765  0.10701986     0.11100
H621        H  0.11252791  0.45447932  0.07257703     0.16500
H622        H  0.16520741  0.44913656  0.06589548     0.12400
H623        H  0.16301369  0.39059669  0.17012788     0.15300
H624        H  0.11061842  0.39655282  0.17737104     0.15100
C625        C  0.04821513  0.20120316  0.49487709    -0.17800
C626        C  0.06113212  0.21256055  0.49532229    -0.20000
C627        C  0.07675478  0.20795347  0.50570056     0.20700
C628        C  0.07848689  0.19172624  0.02217741    -0.02900
C629        C  0.06532415  0.18035590  0.02246544    -0.06000
C630        C  0.05066327  0.18510663  0.50509642     0.21000
C631        C  0.06798116  0.16416233  0.03260677     0.19100
C632        C  0.08366254  0.15956149  0.04269237    -0.17400
C633        C  0.09675198  0.17074456  0.04194413    -0.19700
C634        C  0.09436064  0.18679346  0.03140580     0.20600
C635        C  0.10768743  0.19772375  0.02867799    -0.32700
C636        C  0.10591263  0.21408836  0.51319104     0.01300
C637        C  0.08996173  0.21899314  0.50465829    -0.24000
C638        C  0.03793753  0.17346745  0.50376895    -0.28600
C639        C  0.03966154  0.15711489  0.01996336     0.07000
C640        C  0.05503567  0.15273416  0.03175176    -0.27300
H641        H  0.03634585  0.20496940  0.48629451     0.11700
H642        H  0.05898482  0.22486971  0.48700434     0.12800
H643        H  0.08589751  0.14717888  0.05056789     0.11900
H644        H  0.10882500  0.16674513  0.04915830     0.11100
H645        H  0.11998702  0.19360852  0.03425325     0.16500
H646        H  0.08788815  0.23131117  0.49631678     0.12400
H647        H  0.02605663  0.17682705  0.49464774     0.15300
H648        H  0.05706265  0.14022777  0.03924574     0.15100
C649        C  0.11683007  0.27576279  0.35687647    -0.17800
C650        C  0.11574001  0.26480212  0.38044369    -0.20000
C651        C  0.12801246  0.26449038  0.40224848     0.20700
C652        C  0.14170147  0.27504161  0.39999562    -0.02900
C653        C  0.14282229  0.28610420  0.37620959    -0.06000
C654        C  0.13022424  0.28654135  0.35473796     0.21000
C655        C  0.15637184  0.29691702  0.37420465     0.19100
C656        C  0.16883339  0.29629439  0.39562875    -0.17400
C657        C  0.16775138  0.28522773  0.41914746    -0.19700
C658        C  0.15415430  0.27467519  0.42165544     0.20600
C659        C  0.15262885  0.26399413  0.44572195    -0.32700
C660        C  0.13862154  0.25391342  0.44898392     0.01300
C661        C  0.12662288  0.25395982  0.42645452    -0.24000
C662        C  0.13108144  0.29796319  0.33181215    -0.28600
C663        C  0.14430690  0.30896887  0.33017271     0.07000
C664        C  0.15702553  0.30833085  0.35110455    -0.27300
H665        H  0.10710425  0.27593811  0.34050044     0.11700
H666        H  0.10517339  0.25671326  0.38182564     0.12800
H667        H  0.17933354  0.30447249  0.39434972     0.11900
H668        H  0.17744144  0.28507446  0.43558890     0.11100
H669        H  0.16217606  0.26379111  0.46245559     0.16500
H670        H  0.11612886  0.24589943  0.42704569     0.12400
H671        H  0.12130304  0.29860323  0.31554046     0.15300
H672        H  0.16720185  0.31691100  0.34959642     0.15100
C673        C  0.12155683  0.26849054  0.15432863    -0.17800
C674        C  0.12167904  0.25728817  0.13080540    -0.20000
C675        C  0.13252255  0.25942681  0.10705562     0.20700
C676        C  0.14371567  0.27273638  0.10753796    -0.02900
C677        C  0.14360245  0.28402713  0.13126528    -0.06000
C678        C  0.13228796  0.28203219  0.15455855     0.21000
C679        C  0.15450081  0.29756341  0.13123438     0.19100
C680        C  0.16565617  0.29948240  0.10793539    -0.17400
C681        C  0.16572157  0.28835329  0.08440806    -0.19700
C682        C  0.15464614  0.27510986  0.08381908     0.20600
C683        C  0.15382873  0.26464517  0.05931681    -0.32700
C684        C  0.14207716  0.25194732  0.05786244     0.01300
C685        C  0.13187650  0.24898580  0.08225608    -0.24000
C686        C  0.13169561  0.29379540  0.17729378    -0.28600
C687        C  0.14233694  0.30745039  0.17704519     0.07000
C688        C  0.15383937  0.30912183  0.15417744    -0.27300
H689        H  0.11286612  0.26671012  0.17212495     0.11700
H690        H  0.11304339  0.24713564  0.13089996     0.12800
H691        H  0.17413892  0.30976411  0.10764803     0.11900
H692        H  0.17421681  0.29029859  0.06636152     0.11100
H693        H  0.16189440  0.26681025  0.04069902     0.16500
H694        H  0.12276774  0.23926143  0.08114636     0.12400
H695        H  0.12283002  0.29251262  0.19497263     0.15300
H696        H  0.16209296  0.31960404  0.15411300     0.15100
C697        C  0.17094511  0.55835632  0.13876137    -0.17800
C698        C  0.17054898  0.54633309  0.11663999    -0.20000
C699        C  0.15549102  0.54100679  0.10478937     0.20700
C700        C  0.14066992  0.54784549  0.11538238    -0.02900
C701        C  0.14106158  0.55997407  0.13774457    -0.06000
C702        C  0.15628990  0.56526797  0.14945096     0.21000
C703        C  0.12622630  0.56682611  0.14831161     0.19100
C704        C  0.11117474  0.56152037  0.13642583    -0.17400
C705        C  0.11079473  0.54951835  0.11427121    -0.19700
C706        C  0.12546028  0.54259685  0.10361687     0.20600
C707        C  0.12517248  0.53054434  0.08140020    -0.32700
C708        C  0.13989994  0.52364694  0.07065780     0.01300
C709        C  0.15501235  0.52898537  0.08252879    -0.24000
C710        C  0.15657955  0.57742159  0.17151433    -0.28600
C711        C  0.14184625  0.58427815  0.18200963     0.07000
C712        C  0.12672217  0.57890677  0.17045903    -0.27300
H713        H  0.18273258  0.56226817  0.14749213     0.11700
H714        H  0.18204294  0.54120818  0.10876466     0.12800
H715        H  0.09968172  0.56667163  0.14424936     0.11900
H716        H  0.09901175  0.54564721  0.10545846     0.11100
H717        H  0.11345233  0.52658522  0.07241985     0.16500
H718        H  0.16643942  0.52378350  0.07447811     0.12400
H719        H  0.16821571  0.58163089  0.18049159     0.15300
H720        H  0.11539111  0.58427998  0.17860658     0.15100
C721        C  0.10538987  0.54652601  0.39146026    -0.17800
C722        C  0.10596581  0.55846783  0.36927727    -0.20000
C723        C  0.12068347  0.56683448  0.36327335     0.20700
C724        C  0.13492908  0.56325854  0.37997310    -0.02900
C725        C  0.13436468  0.55116922  0.40219617    -0.06000
C726        C  0.11954496  0.54270736  0.40789315     0.21000
C727        C  0.14869960  0.54741890  0.41845008     0.19100
C728        C  0.16335486  0.55594412  0.41278999    -0.17400
C729        C  0.16389967  0.56798110  0.39088555    -0.19700
C730        C  0.14980707  0.57164134  0.37427646     0.20600
C731        C  0.15036583  0.58345639  0.35192812    -0.32700
C732        C  0.13630718  0.58688891  0.33513820     0.01300
C733        C  0.12148452  0.57864179  0.34080003    -0.24000
C734        C  0.11923890  0.53040648  0.42958021    -0.28600
C735        C  0.13362795  0.52633051  0.44530221     0.07000
C736        C  0.14823244  0.53504250  0.43980993    -0.27300
H737        H  0.09390895  0.54016447  0.39557667     0.11700
H738        H  0.09492029  0.56110448  0.35672179     0.12800
H739        H  0.17443878  0.55321529  0.42517409     0.11900
H740        H  0.17538266  0.57434211  0.38677649     0.11100
H741        H  0.16173844  0.58993630  0.34733618     0.16500
H742        H  0.11067481  0.58144836  0.32768681     0.12400
H743        H  0.10790902  0.52377520  0.43373679     0.15300
H744        H  0.15932781  0.53211916  0.45204165     0.15100
C745        C  0.05995445  0.76925219  0.01765739    -0.17800
C746        C  0.04711987  0.78070992  0.01859331    -0.20000
C747        C  0.05001341  0.79726468  0.01162097     0.20700
C748        C  0.06604787  0.80234056  0.00371256    -0.02900
C749        C  0.07903338  0.79077832  0.00294053    -0.06000
C750        C  0.07592526  0.77416700  0.00990465     0.21000
C751        C  0.09511170  0.79584574  0.99536315     0.19100
C752        C  0.09802646  0.81245844  0.98869534    -0.17400
C753        C  0.08512597  0.82389625  0.98918105    -0.19700
C754        C  0.06909462  0.81894838  0.99650473     0.20600
C755        C  0.05602349  0.83025430  0.99654266    -0.32700
C756        C  0.04007780  0.82520182  0.00422923     0.01300
C757        C  0.03714394  0.80879936  0.01213730    -0.24000
C758        C  0.08888362  0.76279439  0.00954155    -0.28600
C759        C  0.10501920  0.76776673  0.00272373     0.07000
C760        C  0.10800941  0.78427417  0.99516166    -0.27300
H761        H  0.05740123  0.75653715  0.02315191     0.11700
H762        H  0.03490733  0.77660580  0.02468067     0.12800
H763        H  0.11028974  0.81660668  0.98304717     0.11900
H764        H  0.08768721  0.83662316  0.98378648     0.11100
H765        H  0.05820746  0.84299683  0.99064190     0.16500
H766        H  0.02479408  0.80499022  0.01803494     0.12400
H767        H  0.08647298  0.75005707  0.01514092     0.15300
H768        H  0.12044747  0.78823683  0.99030705     0.15100
C769        C  0.10858826  0.69992250  0.10831183    -0.17800
C770        C  0.10960733  0.68944074  0.13264544    -0.20000
C771        C  0.12496816  0.68528466  0.14465427     0.20700
C772        C  0.13947052  0.69173651  0.13209339    -0.02900
C773        C  0.13842678  0.70226967  0.10750184    -0.06000
C774        C  0.12291857  0.70639742  0.09560642     0.21000
C775        C  0.15290487  0.70838772  0.09447702     0.19100
C776        C  0.16829200  0.70416626  0.10638280    -0.17400
C777        C  0.16933951  0.69383489  0.13093653    -0.19700
C778        C  0.15501995  0.68746467  0.14381093     0.20600
C779        C  0.15594925  0.67664950  0.16780486    -0.32700
C780        C  0.14153290  0.67012811  0.18004350     0.01300
C781        C  0.12610761  0.67456166  0.16866992    -0.24000
C782        C  0.12198123  0.71689700  0.07119062    -0.28600
C783        C  0.13633932  0.72363964  0.05866467     0.07000
C784        C  0.15177423  0.71861124  0.06975534    -0.27300
H785        H  0.09658326  0.70295341  0.09940554     0.11700
H786        H  0.09838099  0.68452905  0.14200412     0.12800
H787        H  0.17952536  0.70885790  0.09669376     0.11900
H788        H  0.18135411  0.69070230  0.13968405     0.11100
H789        H  0.16781385  0.67303096  0.17665229     0.16500
H790        H  0.11505992  0.66930758  0.17816530     0.12400
H791        H  0.11001923  0.71956822  0.06184439     0.15300
H792        H  0.16300885  0.72270108  0.05927525     0.15100
C793        C  0.11511094  0.71790768  0.38860679    -0.17800
C794        C  0.11476490  0.70668682  0.36504959    -0.20000
C795        C  0.12755063  0.69524097  0.36116376     0.20700
C796        C  0.14082874  0.69514403  0.38129098    -0.02900
C797        C  0.14118796  0.70648281  0.40503456    -0.06000
C798        C  0.12826128  0.71794181  0.40877150     0.21000
C799        C  0.15433286  0.70610579  0.42537335     0.19100
C800        C  0.16700747  0.69453958  0.42181588    -0.17400
C801        C  0.16668664  0.68338920  0.39830879    -0.19700
C802        C  0.15366400  0.68356787  0.37796225     0.20600
C803        C  0.15318614  0.67224866  0.35456744    -0.32700
C804        C  0.14003742  0.67223697  0.33440913     0.01300
C805        C  0.12723837  0.68377775  0.33778816    -0.24000
C806        C  0.12847715  0.72880321  0.43312187    -0.28600
C807        C  0.14134601  0.72811050  0.45388181     0.07000
C808        C  0.15433550  0.71692134  0.44948252    -0.27300
H809        H  0.10501238  0.72649587  0.39116954     0.11700
H810        H  0.10443100  0.70691166  0.34992757     0.12800
H811        H  0.17713195  0.69403495  0.43737085     0.11900
H812        H  0.17659393  0.67454438  0.39614536     0.11100
H813        H  0.16296532  0.66326907  0.35211433     0.16500
H814        H  0.11699382  0.68365024  0.32244926     0.12400
H815        H  0.11823500  0.73709750  0.43684644     0.15300
H816        H  0.16414635  0.71619161  0.46567949     0.15100
C817        C  0.43747501  0.13707610  0.10417086    -0.17800
C818        C  0.42556878  0.13687674  0.12639942    -0.20000
C819        C  0.42384442  0.12308855  0.14470683     0.20700
C820        C  0.43425385  0.10935582  0.14064989    -0.02900
C821        C  0.44619785  0.10950743  0.11801073    -0.06000
C822        C  0.44781976  0.12345766  0.09976154     0.21000
C823        C  0.45645180  0.09569788  0.11357394     0.19100
C824        C  0.45479639  0.08196032  0.13209136    -0.17400
C825        C  0.44304486  0.08185249  0.15466895    -0.19700
C826        C  0.43266335  0.09544736  0.15907436     0.20600
C827        C  0.42063526  0.09535933  0.18135108    -0.32700
C828        C  0.41012915  0.10893844  0.18511678     0.01300
C829        C  0.41181874  0.12275005  0.16683993    -0.24000
C830        C  0.45972274  0.12355820  0.07737954    -0.28600
C831        C  0.46993263  0.10981045  0.07257138     0.07000
C832        C  0.46815797  0.09588023  0.09073032    -0.27300
H833        H  0.43855000  0.14787723  0.09033062     0.11700
H834        H  0.41768564  0.14751525  0.12924977     0.12800
H835        H  0.46259162  0.07127160  0.12909459     0.11900
H836        H  0.44201456  0.07108158  0.16859283     0.11100
H837        H  0.41925522  0.08470950  0.19549669     0.16500
H838        H  0.40368295  0.13319428  0.16987767     0.12400
H839        H  0.46090730  0.13431559  0.06343526     0.15300
H840        H  0.47602687  0.08527484  0.08733642     0.15100
C841        C  0.43776209  0.14180909  0.41213834    -0.17800
C842        C  0.42524097  0.14177183  0.39096813    -0.20000
C843        C  0.42153433  0.12735821  0.37527890     0.20700
C844        C  0.43060996  0.11284714  0.38077558    -0.02900
C845        C  0.44317614  0.11286886  0.40222905    -0.06000
C846        C  0.44672154  0.12741432  0.41802135     0.21000
C847        C  0.45214480  0.09833439  0.40792452     0.19100
C848        C  0.44868179  0.08400709  0.39176851    -0.17400
C849        C  0.43629335  0.08400865  0.37034098    -0.19700
C850        C  0.42714176  0.09832000  0.36482656     0.20600
C851        C  0.41466135  0.09841817  0.34351222    -0.32700
C852        C  0.40563612  0.11281736  0.33809990     0.01300
C853        C  0.40901689  0.12721665  0.35401411    -0.24000
C854        C  0.45910842  0.12729832  0.43952217    -0.28600
C855        C  0.46789691  0.11278959  0.44569873     0.07000
C856        C  0.46438334  0.09836938  0.42972581    -0.27300
H857        H  0.44038679  0.15308418  0.42402376     0.11700
H858        H  0.41844862  0.15301776  0.38687301     0.12800
H859        H  0.45552971  0.07278324  0.39576110     0.11900
H860        H  0.43382516  0.07279715  0.35815752     0.11100
H861        H  0.41203683  0.08740045  0.33083536     0.16500
H862        H  0.40208851  0.13832450  0.34936996     0.12400
H863        H  0.46177993  0.13848321  0.45167177     0.15300
H864        H  0.47125481  0.08719509  0.43409199     0.15100
C865        C  0.19556148  0.07233271  0.05009284    -0.17800
C866        C  0.18503099  0.05878605  0.05077602    -0.20000
C867        C  0.18197752  0.04968724  0.02506227     0.20700
C868        C  0.18936821  0.05445672  0.99823620    -0.02900
C869        C  0.20015276  0.06805785  0.99759824    -0.06000
C870        C  0.20330222  0.07689408  0.02374391     0.21000
C871        C  0.20810093  0.07254466  0.97107065     0.19100
C872        C  0.20463633  0.06368957  0.94519225    -0.17400
C873        C  0.19157831  0.05048068  0.43918215    -0.19700
C874        C  0.18620829  0.04548068  0.97222028     0.20600
C875        C  0.17569672  0.03176144  0.97325366    -0.32700
C876        C  0.16849426  0.02678536  0.00007011     0.01300
C877        C  0.17171584  0.03586230  0.02582389    -0.24000
C878        C  0.21466948  0.08972454  0.02346534    -0.28600
C879        C  0.22353955  0.09350840  0.99778799     0.07000
C880        C  0.21982073  0.08533782  0.97130143    -0.27300
H881        H  0.19791849  0.07904484  0.07032651     0.11700
H882        H  0.17938441  0.05533603  0.07148848     0.12800
H883        H  0.20925811  0.06724442  0.42078075     0.11900
H884        H  0.18948397  0.04441626  0.41822120     0.11100
H885        H  0.17020831  0.02525694  0.44319502     0.16500
H886        H  0.16607564  0.03228918  0.04648909     0.12400
H887        H  0.21728576  0.09629839  0.04377574     0.15300
H888        H  0.22661464  0.08831957  0.95147105     0.15100
C889        C  0.20758219  0.20398848  0.01466397    -0.17800
C890        C  0.21999188  0.19204995  0.01483473    -0.20000
C891        C  0.21608922  0.17533998  0.01140513     0.20700
C892        C  0.19948004  0.17058449  0.00794945    -0.02900
C893        C  0.18690581  0.18262525  0.00834223    -0.06000
C894        C  0.19102493  0.19941606  0.01143006     0.21000
C895        C  0.17026137  0.17789715  0.00520516     0.19100
C896        C  0.16638423  0.16116862  0.00167614    -0.17400
C897        C  0.17886194  0.14925617  0.00093219    -0.19700
C898        C  0.19544960  0.15382881  0.00393681     0.20600
C899        C  0.20807858  0.14198336  0.00310092    -0.32700
C900        C  0.22459491  0.14666169  0.00705923     0.01300
C901        C  0.22850252  0.16331889  0.01135513    -0.24000
C902        C  0.17855652  0.21136301  0.01060652    -0.28600
C903        C  0.16201383  0.20675647  0.00719681     0.07000
C904        C  0.15787390  0.19002139  0.00493816    -0.27300
H905        H  0.21094405  0.21682334  0.01702730     0.11700
H906        H  0.23267437  0.19590632  0.01743224     0.12800
H907        H  0.15369654  0.15730689  0.99919484     0.11900
H908        H  0.17553252  0.13645042  0.99797584     0.11100
H909        H  0.20506339  0.12908963  0.00012449     0.16500
H910        H  0.24125047  0.16689834  0.01435877     0.12400
H911        H  0.18170151  0.22430974  0.01200499     0.15300
H912        H  0.14511976  0.18653275  0.00174170     0.15100
C913        C  0.29542333  0.08533961  0.13776421    -0.17800
C914        C  0.28493728  0.08615056  0.11339471    -0.20000
C915        C  0.28397212  0.10056590  0.09643246     0.20700
C916        C  0.29373810  0.11424848  0.10386124    -0.02900
C917        C  0.30448121  0.11337833  0.12826901    -0.06000
C918        C  0.30523335  0.09886749  0.14537939     0.21000
C919        C  0.31446731  0.12699641  0.13552116     0.19100
C920        C  0.31359541  0.14133226  0.11835724    -0.17400
C921        C  0.30283162  0.14221488  0.09426662    -0.19700
C922        C  0.29282310  0.12874791  0.08686441     0.20600
C923        C  0.28187644  0.12953991  0.06288404    -0.32700
C924        C  0.27179879  0.11602438  0.05545690     0.01300
C925        C  0.27335339  0.10143349  0.07221032    -0.24000
C926        C  0.31583075  0.09811986  0.16971157    -0.28600
C927        C  0.32577217  0.11161487  0.17686861     0.07000
C928        C  0.32514060  0.12598597  0.15977104    -0.27300
H929        H  0.29588816  0.07411694  0.15061235     0.11700
H930        H  0.27748793  0.07551660  0.10792051     0.12800
H931        H  0.32120174  0.15188468  0.12362408     0.11900
H932        H  0.30232776  0.15343939  0.08143388     0.11100
H933        H  0.28111524  0.14072305  0.04994328     0.16500
H934        H  0.26665584  0.09043049  0.06682746     0.12400
H935        H  0.31650676  0.08704696  0.18297424     0.15300
H936        H  0.33295447  0.13632921  0.16546920     0.15100
C937        C  0.29530913  0.14761395  0.41205247    -0.17800
C938        C  0.30651922  0.14679791  0.38871628    -0.20000
C939        C  0.30710009  0.13286755  0.37042317     0.20700
C940        C  0.29586486  0.11987044  0.37502452    -0.02900
C941        C  0.28444841  0.12075374  0.39844694    -0.06000
C942        C  0.28443432  0.13454687  0.41739957     0.21000
C943        C  0.27355938  0.10752543  0.40367796     0.19100
C944        C  0.27391146  0.09375658  0.38498105    -0.17400
C945        C  0.28524687  0.09286603  0.36181632    -0.19700
C946        C  0.29641568  0.10574371  0.35688756     0.20600
C947        C  0.30841113  0.10456443  0.33470129    -0.32700
C948        C  0.31988273  0.11729028  0.33056018     0.01300
C949        C  0.31900770  0.13149927  0.34816668    -0.24000
C950        C  0.27416504  0.13463169  0.44222041    -0.28600
C951        C  0.26386257  0.12117372  0.44820739     0.07000
C952        C  0.26315250  0.10792829  0.42839216    -0.27300
H953        H  0.29539501  0.15831654  0.42632618     0.11700
H954        H  0.31499291  0.15691276  0.38538412     0.12800
H955        H  0.26566562  0.08349546  0.38868667     0.11900
H956        H  0.28547527  0.08195605  0.34806718     0.11100
H957        H  0.30913127  0.09360949  0.32109522     0.16500
H958        H  0.32785833  0.14130279  0.34486808     0.12400
H959        H  0.27477804  0.14475937  0.45778450     0.15300
H960        H  0.25539539  0.09744814  0.43339722     0.15100
C961        C  0.55948357  0.14467161  0.39524123    -0.17800
C962        C  0.57156057  0.14539832  0.37338139    -0.20000
C963        C  0.57861295  0.13090865  0.36229748     0.20700
C964        C  0.57334151  0.11550195  0.37315954    -0.02900
C965        C  0.56115653  0.11477659  0.39526126    -0.06000
C966        C  0.55426763  0.12944542  0.40638638     0.21000
C967        C  0.55597206  0.09940751  0.40636617     0.19100
C968        C  0.56294613  0.08490357  0.39507324    -0.17400
C969        C  0.57501582  0.08561361  0.37312638    -0.19700
C970        C  0.58032955  0.10083614  0.36210845     0.20600
C971        C  0.59257979  0.10168554  0.34041067    -0.32700
C972        C  0.59795995  0.11699559  0.32988200     0.01300
C973        C  0.59092406  0.13154653  0.34071739    -0.24000
C974        C  0.54237735  0.12868163  0.42864143    -0.28600
C975        C  0.53722555  0.11345410  0.44014326     0.07000
C976        C  0.54402044  0.09883670  0.42871098    -0.27300
H977        H  0.55427860  0.15604073  0.40355684     0.11700
H978        H  0.57544347  0.15730552  0.36524062     0.12800
H979        H  0.55911488  0.07300100  0.40330932     0.11900
H980        H  0.58025508  0.07424910  0.36486384     0.11100
H981        H  0.59808101  0.09050399  0.33185142     0.16500
H982        H  0.59512383  0.14331341  0.33237756     0.12400
H983        H  0.53722203  0.14003272  0.43715771     0.15300
H984        H  0.54013643  0.08703575  0.43735290     0.15100
C985        C  0.57687457  0.14269865  0.13163805    -0.17800
C986        C  0.56473448  0.14228474  0.10984027    -0.20000
C987        C  0.55898541  0.12718679  0.09891623     0.20700
C988        C  0.56568503  0.11233855  0.10966065    -0.02900
C989        C  0.57789866  0.11274661  0.13173175    -0.06000
C990        C  0.58341533  0.12802215  0.14284916     0.21000
C991        C  0.58440948  0.09789821  0.14296420     0.19100
C992        C  0.57890812  0.08281596  0.13153696    -0.17400
C993        C  0.56682164  0.08242087  0.10952810    -0.19700
C994        C  0.56001583  0.09710151  0.09867538     0.20600
C995        C  0.54748443  0.09682944  0.07735732    -0.32700
C996        C  0.54050915  0.11160294  0.06703366     0.01300
C997        C  0.54648565  0.12671377  0.07771750    -0.24000
C998        C  0.59524093  0.12835495  0.16522953    -0.28600
C999        C  0.60147842  0.11365288  0.17677845     0.07000
C1000       C  0.59615670  0.09844854  0.16562443    -0.27300
H1001       H  0.58103657  0.15449752  0.13993420     0.11700
H1002       H  0.55973363  0.15377970  0.10170131     0.12800
H1003       H  0.58385188  0.07132374  0.13979588     0.11900
H1004       H  0.56266368  0.07062377  0.10122474     0.11100
H1005       H  0.54303258  0.08512018  0.06911701     0.16500
H1006       H  0.54130251  0.13817395  0.06975684     0.12400
H1007       H  0.59949336  0.14002091  0.17403700     0.15300
H1008       H  0.60113624  0.08715464  0.17469796     0.15100
C1009       C  0.81668383  0.07320768  0.46004869    -0.17800
C1010       C  0.82731458  0.05969734  0.45963099    -0.20000
C1011       C  0.82879490  0.04950277  0.48442400     0.20700
C1012       C  0.81811061  0.05411068  0.00811514    -0.02900
C1013       C  0.80766867  0.06796509  0.00955164    -0.06000
C1014       C  0.80730952  0.07671183  0.48522837     0.21000
C1015       C  0.79823002  0.07102953  0.03515213     0.19100
C1016       C  0.79977109  0.06041288  0.05940070    -0.17400
C1017       C  0.81036939  0.04680522  0.05816040    -0.19700
C1018       C  0.81950052  0.04347799  0.03254481     0.20600
C1019       C  0.83004334  0.02977819  0.03088396    -0.32700
C1020       C  0.83895271  0.02646807  0.00489779     0.01300
C1021       C  0.83932135  0.03584164  0.48396283    -0.24000
C1022       C  0.79603709  0.08972017  0.48519715    -0.28600
C1023       C  0.78599061  0.09279431  0.50981325     0.07000
C1024       C  0.78697313  0.08423190  0.03545423    -0.27300
H1025       H  0.81562764  0.08079700  0.44051025     0.11700
H1026       H  0.83431944  0.05716705  0.43983002     0.12800
H1027       H  0.79266430  0.06254266  0.07923063     0.11900
H1028       H  0.81129959  0.03878316  0.07715007     0.11100
H1029       H  0.83132632  0.02171705  0.04977140     0.16500
H1030       H  0.84641492  0.03327888  0.46426093     0.12400
H1031       H  0.79461681  0.09716253  0.46552000     0.15300
H1032       H  0.77904393  0.08618102  0.05433455     0.15100
C1033       C  0.72261057  0.09104123  0.39436905    -0.17800
C1034       C  0.71171368  0.09149917  0.37051832    -0.20000
C1035       C  0.70336686  0.10608363  0.36350425     0.20700
C1036       C  0.70613271  0.12040911  0.38046823    -0.02900
C1037       C  0.71712608  0.11993047  0.40451350    -0.06000
C1038       C  0.72534264  0.10516862  0.41154059     0.21000
C1039       C  0.71959920  0.13411148  0.42189050     0.19100
C1040       C  0.71134282  0.14874651  0.41474272    -0.17400
C1041       C  0.70049744  0.14926340  0.39080257    -0.19700
C1042       C  0.69770073  0.13513713  0.37373056     0.20600
C1043       C  0.68642666  0.13537814  0.35035797    -0.32700
C1044       C  0.68355518  0.12110222  0.33378964     0.01300
C1045       C  0.69210073  0.10655026  0.34014782    -0.24000
C1046       C  0.73599615  0.10468064  0.43581953    -0.28600
C1047       C  0.73879620  0.11884109  0.45317826     0.07000
C1048       C  0.73017092  0.13339172  0.44626535    -0.27300
H1049       H  0.72884253  0.07960245  0.39948351     0.11700
H1050       H  0.70971472  0.08041329  0.35770416     0.12800
H1051       H  0.71319619  0.15977227  0.42778956     0.11900
H1052       H  0.69416279  0.16066471  0.38583176     0.11100
H1053       H  0.67971229  0.14654594  0.34519822     0.16500
H1054       H  0.68971970  0.09558072  0.32718433     0.12400
H1055       H  0.74154689  0.09302775  0.44136163     0.15300
H1056       H  0.73175702  0.14423675  0.45992105     0.15100
C1057       C  0.69320275  0.14619024  0.11141102    -0.17800
C1058       C  0.70417100  0.14646842  0.08773208    -0.20000
C1059       C  0.71754015  0.13554254  0.08683706     0.20700
C1060       C  0.72009778  0.12439706  0.11017979    -0.02900
C1061       C  0.70895966  0.12405348  0.13402964    -0.06000
C1062       C  0.69540913  0.13494969  0.13451693     0.21000
C1063       C  0.71113993  0.11253408  0.15695915     0.19100
C1064       C  0.72464597  0.10176391  0.15617496    -0.17400
C1065       C  0.73572774  0.10214333  0.13255921    -0.19700
C1066       C  0.73347890  0.11327033  0.10924929     0.20600
C1067       C  0.74391228  0.11302482  0.08447282    -0.32700
C1068       C  0.74085333  0.12357386  0.06060074     0.01300
C1069       C  0.72799925  0.13513843  0.06241958    -0.24000
C1070       C  0.68411163  0.13417752  0.15776724    -0.28600
C1071       C  0.68600199  0.12248517  0.18029430     0.07000
C1072       C  0.69958047  0.11176058  0.17988723    -0.27300
H1073       H  0.68285573  0.15460590  0.11144052     0.11700
H1074       H  0.70205236  0.15506403  0.06987761     0.12800
H1075       H  0.72652284  0.09288494  0.17366009     0.11900
H1076       H  0.74589817  0.09352094  0.13227115     0.11100
H1077       H  0.75373446  0.10403222  0.08297975     0.16500
H1078       H  0.72572414  0.14339938  0.04409075     0.12400
H1079       H  0.67359743  0.14240029  0.15809505     0.15300
H1080       H  0.70093456  0.10265328  0.19716831     0.15100
C1081       C  0.46182062  0.84726920  0.36802598    -0.17800
C1082       C  0.45024949  0.84732578  0.34511987    -0.20000
C1083       C  0.43711301  0.85853775  0.34532622     0.20700
C1084       C  0.43572854  0.86995389  0.36869829    -0.02900
C1085       C  0.44750361  0.86999718  0.39169538    -0.06000
C1086       C  0.46052947  0.85849938  0.39146306     0.21000
C1087       C  0.44620586  0.88149857  0.41494349     0.19100
C1088       C  0.43302859  0.89267755  0.41519275    -0.17400
C1089       C  0.42125539  0.89250355  0.39260770    -0.19700
C1090       C  0.42251148  0.88122987  0.36923879     0.20600
C1091       C  0.41070199  0.88089811  0.34659108    -0.32700
C1092       C  0.41193322  0.86944565  0.32341696     0.01300
C1093       C  0.42521372  0.85837102  0.32283092    -0.24000
C1094       C  0.47204338  0.85845786  0.41462267    -0.28600
C1095       C  0.47099699  0.87006731  0.43758299     0.07000
C1096       C  0.45809162  0.88160440  0.43751336    -0.27300
H1097       H  0.47178987  0.83841903  0.36741586     0.11700
H1098       H  0.45151146  0.83850577  0.32732906     0.12800
H1099       H  0.43179447  0.90153437  0.43292994     0.11900
H1100       H  0.41116090  0.90120638  0.39341360     0.11100
H1101       H  0.40038802  0.88936301  0.34711405     0.16500
H1102       H  0.42604581  0.84942068  0.30514487     0.12400
H1103       H  0.48203828  0.84961427  0.41449170     0.15300
H1104       H  0.45717437  0.89048851  0.45529227     0.15100
C1105       C  0.43967328  0.89594888  0.09624486    -0.17800
C1106       C  0.42701685  0.89599888  0.11708149    -0.20000
C1107       C  0.42337332  0.88172558  0.13313476     0.20700
C1108       C  0.43260738  0.86724541  0.12822853    -0.02900
C1109       C  0.44533839  0.86718587  0.10713294    -0.06000
C1110       C  0.44885638  0.88160957  0.09106014     0.21000
C1111       C  0.45448718  0.85269066  0.10205343     0.19100
C1112       C  0.45097915  0.83846273  0.11838086    -0.17400
C1113       C  0.43841634  0.83854044  0.13941847    -0.19700
C1114       C  0.42914171  0.85283689  0.14442525     0.20600
C1115       C  0.41655963  0.85304648  0.16550264    -0.32700
C1116       C  0.40743013  0.86743949  0.17044789     0.01300
C1117       C  0.41077100  0.88170256  0.15419300    -0.24000
C1118       C  0.46138515  0.88141391  0.06988042    -0.28600
C1119       C  0.47032703  0.86693043  0.06422349     0.07000
C1120       C  0.46688214  0.85264342  0.08057464    -0.27300
H1121       H  0.44223748  0.90712067  0.08408266     0.11700
H1122       H  0.42007935  0.90721214  0.12065428     0.12800
H1123       H  0.45792568  0.82725359  0.11481995     0.11900
H1124       H  0.43593112  0.82740450  0.15173865     0.11100
H1125       H  0.41394217  0.84212010  0.17836101     0.16500
H1126       H  0.40373595  0.89279816  0.15839244     0.12400
H1127       H  0.46396220  0.89248429  0.05740950     0.15300
H1128       H  0.47383488  0.84147525  0.07658178     0.15100
C1129       C  0.18860707  0.92293925  0.05451308    -0.17800
C1130       C  0.19996516  0.90994605  0.05411643    -0.20000
C1131       C  0.20776061  0.90534558  0.02774293     0.20700
C1132       C  0.20379163  0.91376440  0.00145903    -0.02900
C1133       C  0.19242115  0.92692169  0.00187430    -0.06000
C1134       C  0.18489522  0.93163226  0.02857172     0.21000
C1135       C  0.18579443  0.93477175  0.46684027     0.19100
C1136       C  0.19167924  0.92774822  0.44063300    -0.17400
C1137       C  0.20362825  0.91537762  0.44149098    -0.19700
C1138       C  0.20988179  0.90981534  0.46857207     0.20600
C1139       C  0.22180209  0.89739857  0.46955617    -0.32700
C1140       C  0.22722875  0.88804645  0.00055897     0.01300
C1141       C  0.21954575  0.89262052  0.02718793    -0.24000
C1142       C  0.17385902  0.94497033  0.02881521    -0.28600
C1143       C  0.17021381  0.95362404  0.00265197     0.07000
C1144       C  0.17383199  0.94723080  0.46613564    -0.27300
H1145       H  0.18283800  0.92628957  0.07518552     0.11700
H1146       H  0.20272456  0.90355863  0.07448865     0.12800
H1147       H  0.18704903  0.93183363  0.41945167     0.11900
H1148       H  0.20798648  0.91015487  0.42094305     0.11100
H1149       H  0.22594417  0.89190975  0.44908577     0.16500
H1150       H  0.22287415  0.88654042  0.04756473     0.12400
H1151       H  0.16803116  0.94852690  0.04933511     0.15300
H1152       H  0.16908101  0.95142549  0.44509830     0.15100
C1153       C  0.18327257  0.80017692  0.45144796    -0.17800
C1154       C  0.19482472  0.81294625  0.44985559    -0.20000
C1155       C  0.20161034  0.81672340  0.97619468     0.20700
C1156       C  0.19642440  0.81057583  0.00364802    -0.02900
C1157       C  0.18406165  0.79840641  0.00476220    -0.06000
C1158       C  0.17704947  0.79220652  0.97843914     0.21000
C1159       C  0.17884798  0.79233955  0.03222731     0.19100
C1160       C  0.18598120  0.79838668  0.05830024    -0.17400
C1161       C  0.19839008  0.81026468  0.05717744    -0.19700
C1162       C  0.20373525  0.81642141  0.02998437     0.20600
C1163       C  0.21648727  0.82804102  0.02863884    -0.32700
C1164       C  0.22202388  0.83383983  0.00131001     0.01300
C1165       C  0.21403014  0.83170214  0.47426528    -0.24000
C1166       C  0.16521755  0.77958546  0.97978576    -0.28600
C1167       C  0.16019211  0.77325316  0.00715492     0.07000
C1168       C  0.16674373  0.78015558  0.03323577    -0.27300
H1169       H  0.17834950  0.79506745  0.43119623     0.11700
H1170       H  0.19859476  0.81738947  0.42839342     0.12800
H1171       H  0.18210733  0.79376365  0.07958105     0.11900
H1172       H  0.20386003  0.81457729  0.07757761     0.11100
H1173       H  0.22247646  0.83211278  0.04873917     0.16500
H1174       H  0.21800616  0.83612889  0.45290669     0.12400
H1175       H  0.16030935  0.77442796  0.95956757     0.15300
H1176       H  0.16252442  0.77603390  0.05460573     0.15100
C1177       C  0.28809333  0.83113844  0.39128461    -0.17800
C1178       C  0.29855451  0.83152936  0.36687605    -0.20000
C1179       C  0.30813269  0.84550732  0.36116935     0.20700
C1180       C  0.30746278  0.85908374  0.38063409    -0.02900
C1181       C  0.29692916  0.85866709  0.40524400    -0.06000
C1182       C  0.28702488  0.84473718  0.41031126     0.21000
C1183       C  0.29619006  0.87224697  0.42457880     0.19100
C1184       C  0.30619696  0.88601166  0.41949351    -0.17400
C1185       C  0.31659525  0.88647565  0.39500799    -0.19700
C1186       C  0.31718912  0.87314904  0.37535565     0.20600
C1187       C  0.32731495  0.87363435  0.35049167    -0.32700
C1188       C  0.32784787  0.86025446  0.33095221     0.01300
C1189       C  0.31835700  0.84618517  0.33636639    -0.24000
C1190       C  0.27594389  0.84474850  0.43389505    -0.28600
C1191       C  0.27430042  0.85868728  0.45225748     0.07000
C1192       C  0.28513413  0.87202288  0.44818932    -0.27300
H1193       H  0.28063705  0.82029162  0.39501532     0.11700
H1194       H  0.29902817  0.82096669  0.35229750     0.12800
H1195       H  0.30579440  0.89652203  0.43420147     0.11900
H1196       H  0.32407636  0.89730871  0.39130978     0.11100
H1197       H  0.33488247  0.88436370  0.34628022     0.16500
H1198       H  0.31906678  0.83580744  0.32137061     0.12400
H1199       H  0.26878509  0.83378012  0.43752985     0.15300
H1200       H  0.28448003  0.88254986  0.46285886     0.15100
C1201       C  0.28851608  0.82930195  0.10851107    -0.17800
C1202       C  0.29995635  0.83010466  0.13158469    -0.20000
C1203       C  0.30446545  0.84533380  0.14377966     0.20700
C1204       C  0.29697346  0.85987586  0.13323631    -0.02900
C1205       C  0.28528420  0.85904759  0.11013141    -0.06000
C1206       C  0.28129281  0.84370509  0.09734967     0.21000
C1207       C  0.27816940  0.87362968  0.09893818     0.19100
C1208       C  0.28247526  0.88883337  0.11149324    -0.17400
C1209       C  0.29406737  0.88965631  0.13434329    -0.19700
C1210       C  0.30155748  0.87528946  0.14509034     0.20600
C1211       C  0.31382707  0.87607870  0.16693871    -0.32700
C1212       C  0.32152758  0.86166486  0.17704604     0.01300
C1213       C  0.31662542  0.84632317  0.16577337    -0.24000
C1214       C  0.27088348  0.84313882  0.07260830    -0.28600
C1215       C  0.26438749  0.85768150  0.06057616     0.07000
C1216       C  0.26762241  0.87282300  0.07435045    -0.27300
H1217       H  0.28556767  0.81742830  0.09898244     0.11700
H1218       H  0.30554617  0.81882844  0.13947093     0.12800
H1219       H  0.27715305  0.90014210  0.10317693     0.11900
H1220       H  0.29739594  0.90157712  0.14325725     0.11100
H1221       H  0.31761287  0.88788497  0.17579901     0.16500
H1222       H  0.32258213  0.83523518  0.17370537     0.12400
H1223       H  0.26865723  0.83151881  0.06151284     0.15300
H1224       H  0.26293771  0.88405758  0.06455028     0.15100
C1225       C  0.57075979  0.83800908  0.14128219    -0.17800
C1226       C  0.55911090  0.83795446  0.11852215    -0.20000
C1227       C  0.55540900  0.85248437  0.10317229     0.20700
C1228       C  0.56350291  0.86723731  0.11084748    -0.02900
C1229       C  0.57531062  0.86728739  0.13376938    -0.06000
C1230       C  0.57893861  0.85258808  0.14906190     0.21000
C1231       C  0.58352393  0.88201810  0.14128677     0.19100
C1232       C  0.57980093  0.89654561  0.12595156    -0.17400
C1233       C  0.56803571  0.89650830  0.10335795    -0.19700
C1234       C  0.55982180  0.88192855  0.09561800     0.20600
C1235       C  0.54800157  0.88178220  0.07295155    -0.32700
C1236       C  0.53988713  0.86709990  0.06511079     0.01300
C1237       C  0.54373754  0.85250069  0.08033197    -0.24000
C1238       C  0.59076335  0.85271444  0.17168225    -0.28600
C1239       C  0.59906539  0.86731041  0.17898939     0.07000
C1240       C  0.59538501  0.88191685  0.16384454    -0.27300
H1241       H  0.57340597  0.82662429  0.15275857     0.11700
H1242       H  0.55298804  0.82652641  0.11291765     0.12800
H1243       H  0.58599820  0.90795168  0.13143114     0.11900
H1244       H  0.56538054  0.90789384  0.09189019     0.11100
H1245       H  0.54518002  0.89309101  0.06134614     0.16500
H1246       H  0.53752875  0.84112986  0.07461402     0.12400
H1247       H  0.59372654  0.84146163  0.18336110     0.15300
H1248       H  0.60188848  0.89313091  0.16952970     0.15100
C1249       C  0.56882785  0.90181477  0.40330390    -0.17800
C1250       C  0.58125421  0.90201430  0.38195772    -0.20000
C1251       C  0.58601317  0.88742717  0.36771463     0.20700
C1252       C  0.57821578  0.87247085  0.37517943    -0.02900
C1253       C  0.56574448  0.87226634  0.39678609    -0.06000
C1254       C  0.56098559  0.88701705  0.41084543     0.21000
C1255       C  0.55802081  0.85729618  0.40424171     0.19100
C1256       C  0.56277224  0.84270043  0.39005979    -0.17400
C1257       C  0.57505440  0.84291021  0.36855479    -0.19700
C1258       C  0.58281647  0.85770716  0.36095575     0.20600
C1259       C  0.59502345  0.85800513  0.33924643    -0.32700
C1260       C  0.60274552  0.87281998  0.33170102     0.01300
C1261       C  0.59832169  0.88749587  0.34600570    -0.24000
C1262       C  0.54849471  0.88669297  0.43219790    -0.28600
C1263       C  0.54080310  0.87177922  0.43986036     0.07000
C1264       C  0.54567115  0.85714918  0.42573363    -0.27300
H1265       H  0.56534511  0.91324660  0.41391722     0.11700
H1266       H  0.58710179  0.91359340  0.37650915     0.12800
H1267       H  0.55695267  0.83111283  0.39555275     0.11900
H1268       H  0.57847304  0.83149022  0.35783090     0.11100
H1269       H  0.59852469  0.84674725  0.32802191     0.16500
H1270       H  0.60433296  0.89890369  0.33994544     0.12400
H1271       H  0.54486653  0.89803046  0.44299922     0.15300
H1272       H  0.53979540  0.84560151  0.43135284     0.15100
C1273       C  0.80321241  0.94010244  0.04263562    -0.17800
C1274       C  0.79230667  0.92683198  0.04346919    -0.20000
C1275       C  0.79431668  0.91342096  0.02424674     0.20700
C1276       C  0.80734510  0.91336637  0.00389493    -0.02900
C1277       C  0.81811273  0.92700162  0.00247342    -0.06000
C1278       C  0.81611753  0.94033674  0.02217557     0.21000
C1279       C  0.83086627  0.92727743  0.98143054     0.19100
C1280       C  0.81947415  0.92747298  0.45117771    -0.17400
C1281       C  0.80835611  0.91428267  0.45099948    -0.19700
C1282       C  0.80955814  0.89975868  0.98490980     0.20600
C1283       C  0.79888753  0.88610712  0.98689051    -0.32700
C1284       C  0.78568450  0.88608731  0.00704264     0.01300
C1285       C  0.78342253  0.90012762  0.02508914    -0.24000
C1286       C  0.82708861  0.95363912  0.02118004    -0.28600
C1287       C  0.83971303  0.95409040  0.00011807     0.07000
C1288       C  0.84142032  0.94098122  0.98002664    -0.27300
H1289       H  0.80148893  0.95023367  0.05787928     0.11700
H1290       H  0.78235994  0.92699815  0.05934684     0.12800
H1291       H  0.82306191  0.93295848  0.43040332     0.11900
H1292       H  0.80356674  0.90989932  0.43010924     0.11100
H1293       H  0.78652070  0.88970686  0.45723926     0.16500
H1294       H  0.77304300  0.90108274  0.03981530     0.12400
H1295       H  0.82573686  0.96374621  0.03662808     0.15300
H1296       H  0.84049207  0.95256441  0.45781176     0.15100
C1297       C  0.71160850  0.83017577  0.14069877    -0.17800
C1298       C  0.72286725  0.82906877  0.11748891    -0.20000
C1299       C  0.72604157  0.84277771  0.09957229     0.20700
C1300       C  0.71783952  0.85776087  0.10520717    -0.02900
C1301       C  0.70656782  0.85891440  0.12865135    -0.06000
C1302       C  0.70338224  0.84501817  0.14639979     0.21000
C1303       C  0.69838503  0.87394637  0.13415891     0.19100
C1304       C  0.70163562  0.88768273  0.11646732    -0.17400
C1305       C  0.71269656  0.88648067  0.09307294    -0.19700
C1306       C  0.72072897  0.87155752  0.08719946     0.20600
C1307       C  0.73156501  0.87022606  0.06352199    -0.32700
C1308       C  0.74017934  0.85550322  0.05794136     0.01300
C1309       C  0.73719890  0.84173362  0.07606180    -0.24000
C1310       C  0.69196669  0.84623785  0.16940070    -0.28600
C1311       C  0.68377465  0.86114049  0.17460066     0.07000
C1312       C  0.68701083  0.87494019  0.15713837    -0.27300
H1313       H  0.70930250  0.81941266  0.15414127     0.11700
H1314       H  0.72904813  0.81746539  0.11348122     0.12800
H1315       H  0.69551452  0.89930962  0.12056301     0.11900
H1316       H  0.71493380  0.89721157  0.07950583     0.11100
H1317       H  0.73350779  0.88081427  0.04941763     0.16500
H1318       H  0.74313001  0.83008486  0.07189478     0.12400
H1319       H  0.68936457  0.83567117  0.18319358     0.15300
H1320       H  0.68063171  0.88640638  0.16154664     0.15100
C1321       C  0.70070911  0.89380561  0.39265534    -0.17800
C1322       C  0.71186867  0.89319594  0.41609950    -0.20000
C1323       C  0.72339296  0.88038317  0.41804692     0.20700
C1324       C  0.72403975  0.86829709  0.39573349    -0.02900
C1325       C  0.71266765  0.86885481  0.37210351    -0.06000
C1326       C  0.70083679  0.88157619  0.37082881     0.21000
C1327       C  0.71277267  0.85641681  0.35035859     0.32700
C1328       C  0.72463286  0.84385434  0.35193635    -0.17400
C1329       C  0.73592215  0.84330650  0.37537134    -0.19700
C1330       C  0.73557106  0.85530812  0.39769427     0.20600
C1331       C  0.74591021  0.85414157  0.42265691    -0.32700
C1332       C  0.74456398  0.86566872  0.44568352     0.01300
C1333       C  0.73369130  0.87901791  0.44270054    -0.24000
C1334       C  0.68904136  0.88163151  0.34824665    -0.28600
C1335       C  0.68866527  0.86900810  0.32710544     0.07000
C1336       C  0.70073406  0.85655040  0.32798094    -0.27300
H1337       H  0.69173562  0.90366400  0.39193978     0.11700
H1338       H  0.71125089  0.90256922  0.43307549     0.12800
H1339       H  0.72497453  0.83425818  0.33534166     0.11900
H1340       H  0.74468694  0.83327296  0.37638728     0.11100
H1341       H  0.75413685  0.84372613  0.42511528     0.16500
H1342       H  0.73262916  0.88787646  0.46051132     0.12400
H1343       H  0.67984379  0.89129448  0.34743111     0.15300
H1344       H  0.70048384  0.84680844  0.31163378     0.15100
C1345       C  0.92140990  0.42116985  0.14148123    -0.17800
C1346       C  0.92096296  0.43332653  0.11961994    -0.20000
C1347       C  0.90589259  0.43856628  0.10766445     0.20700
C1348       C  0.89110176  0.43174686  0.11839875    -0.02900
C1349       C  0.89154393  0.41951942  0.14058103    -0.06000
C1350       C  0.90679455  0.41405520  0.15188416     0.21000
C1351       C  0.87674209  0.41260843  0.15112545     0.19100
C1352       C  0.86165907  0.41811690  0.13967290    -0.17400
C1353       C  0.86123081  0.43015943  0.11763530    -0.19700
C1354       C  0.87587503  0.43695553  0.10668154     0.20600
C1355       C  0.87554315  0.44868588  0.08395065    -0.32700
C1356       C  0.89023871  0.45531898  0.07257202     0.01300
C1357       C  0.90537087  0.45030915  0.08490007    -0.24000
C1358       C  0.90715723  0.40145006  0.17309133    -0.28600
C1359       C  0.89246740  0.39437040  0.18338310     0.07000
C1360       C  0.87729940  0.40018720  0.17264880    -0.27300
H1361       H  0.93321726  0.41721778  0.15006237     0.11700
H1362       H  0.93243945  0.43849191  0.11179925     0.12800
H1363       H  0.85018018  0.41298229  0.14754791     0.11900
H1364       H  0.84942571  0.43405991  0.10896601     0.11100
H1365       H  0.86379653  0.45249319  0.07487965     0.16500
H1366       H  0.91677586  0.45539463  0.07656872     0.12400
H1367       H  0.91883935  0.39705263  0.18156916     0.15300
H1368       H  0.86597508  0.39481433  0.18077698     0.15100
C1369       C  0.86405677  0.43441732  0.38490076    -0.17800
C1370       C  0.86502887  0.42222810  0.36319988    -0.20000
C1371       C  0.87931687  0.41268259  0.36024456     0.20700
C1372       C  0.89281146  0.41545819  0.37926047    -0.02900
C1373       C  0.89187075  0.42785451  0.40102973    -0.06000
C1374       C  0.87738506  0.43730757  0.40391878     0.21000
C1375       C  0.90540473  0.43078570  0.41986357     0.19100
C1376       C  0.91969445  0.42121142  0.41690544    -0.17400
C1377       C  0.92058801  0.40883473  0.39545884    -0.19700
C1378       C  0.90723679  0.40587034  0.37650177     0.20600
C1379       C  0.90803781  0.39355620  0.35477143    -0.32700
C1380       C  0.89465025  0.39088487  0.33574453     0.01300
C1381       C  0.88035699  0.40043877  0.33856445    -0.24000
C1382       C  0.87646409  0.44948937  0.42575455    -0.28600
C1383       C  0.88991177  0.45254994  0.44451904     0.07000
C1384       C  0.90438756  0.44321002  0.44133015    -0.27300
H1385       H  0.85287234  0.44160266  0.38679197     0.11700
H1386       H  0.85458266  0.42024432  0.34874543     0.12800
H1387       H  0.93018293  0.42327977  0.43122178     0.11900
H1388       H  0.93174720  0.40160591  0.39364718     0.11100
H1389       H  0.91905282  0.38614350  0.35241168     0.16500
H1390       H  0.87007580  0.39828663  0.32377671     0.12400
H1391       H  0.86532336  0.45673495  0.42791151     0.15300
H1392       H  0.91477902  0.44546357  0.45580604     0.15100
C1393       C  0.93519895  0.19854239  0.45999544    -0.17800
C1394       C  0.94930202  0.18863661  0.46116317    -0.20000
C1395       C  0.95239644  0.17862504  0.48579389     0.20700
C1396       C  0.94036977  0.17503031  0.00822126    -0.02900
C1397       C  0.92652537  0.18546218  0.00665895    -0.06000
C1398       C  0.92390394  0.19855203  0.48337666     0.21000
C1399       C  0.91610923  0.18703992  0.03131230     0.19100
C1400       C  0.91937521  0.17802963  0.05701549    -0.17400
C1401       C  0.93307751  0.16768780  0.05854178    -0.19700
C1402       C  0.94371345  0.16619559  0.03437544     0.20600
C1403       C  0.95760015  0.15599103  0.03590666    -0.32700
C1404       C  0.96810893  0.15435413  0.01152850     0.01300
C1405       C  0.96621778  0.16825832  0.48680925    -0.24000
C1406       C  0.90978313  0.20857645  0.48263817    -0.28600
C1407       C  0.90002026  0.20758197  0.00499812     0.07000
C1408       C  0.90290061  0.19800383  0.03021866    -0.27300
H1409       H  0.93311250  0.20617424  0.44077728     0.11700
H1410       H  0.95776104  0.18875266  0.44272839     0.12800
H1411       H  0.91143703  0.17913951  0.07608590     0.11900
H1412       H  0.93541999  0.16094005  0.07870712     0.11100
H1413       H  0.96004645  0.14908987  0.05588085     0.16500
H1414       H  0.97456387  0.16788200  0.46820117     0.12400
H1415       H  0.90759978  0.21668162  0.46406311     0.15300
H1416       H  0.89511135  0.19953582  0.04942608     0.15100
C1417       C  0.84191706  0.16325766  0.00006652    -0.17800
C1418       C  0.82980384  0.15106641  0.00269819    -0.20000
C1419       C  0.81318685  0.15539411  0.00625338     0.20700
C1420       C  0.80875873  0.17218918  0.00734765    -0.02900
C1421       C  0.82097600  0.18446952  0.00485780    -0.06000
C1422       C  0.83764493  0.18000404  0.00107296     0.21000
C1423       C  0.81648573  0.20122714  0.00624932     0.19100
C1424       C  0.79991054  0.20558253  0.00986969    -0.17400
C1425       C  0.78779768  0.19344426  0.01186182    -0.19700
C1426       C  0.79207642  0.17674450  0.01052242     0.20600
C1427       C  0.77991250  0.16454542  0.01148141    -0.32700
C1428       C  0.78420978  0.14786739  0.00979843     0.01300
C1429       C  0.80085064  0.14329303  0.00787324    -0.24000
C1430       C  0.84972139  0.19237581  0.99903766    -0.28600
C1431       C  0.84529355  0.20906441  0.00139695     0.07000
C1432       C  0.82865930  0.21336580  0.00457488    -0.27300
H1433       H  0.85464046  0.15958395  0.99730909     0.11700
H1434       H  0.83342059  0.13824284  0.00172527     0.12800
H1435       H  0.79630126  0.21840253  0.01106721     0.11900
H1436       H  0.77505841  0.19712521  0.01435308     0.11100
H1437       H  0.76703417  0.16798438  0.01272575     0.16500
H1438       H  0.80419096  0.13058165  0.51111695     0.12400
H1439       H  0.86259327  0.18903525  0.99707777     0.15300
H1440       H  0.82526024  0.22623232  0.00641638     0.15100
C1441       C  0.90831080  0.29601355  0.10857923    -0.17800
C1442       C  0.90581954  0.28556287  0.08443918    -0.20000
C1443       C  0.89164447  0.27574114  0.08267596     0.20700
C1444       C  0.88001744  0.27621580  0.10566409    -0.02900
C1445       C  0.88254016  0.28672248  0.13007517    -0.06000
C1446       C  0.89667890  0.29679462  0.13136730     0.21000
C1447       C  0.87080113  0.28731200  0.15295876     0.19100
C1448       C  0.85685731  0.27717181  0.15152853    -0.17400
C1449       C  0.85437949  0.26675694  0.12735481    -0.19700
C1450       C  0.86580404  0.26629797  0.10418718     0.20600
C1451       C  0.86323471  0.25604728  0.07968475    -0.32700
C1452       C  0.87477639  0.25541987  0.05649590     0.01300
C1453       C  0.88893068  0.26543143  0.05836309    -0.24000
C1454       C  0.89878483  0.30764035  0.15517721    -0.28600
C1455       C  0.88692871  0.30854391  0.17762692     0.07000
C1456       C  0.87307356  0.29823096  0.17658968    -0.27300
H1457       H  0.91926984  0.30359317  0.10930103     0.11700
H1458       H  0.91493059  0.28524902  0.06703496     0.12800
H1459       H  0.84777978  0.27740721  0.16899027     0.11900
H1460       H  0.84345117  0.25913040  0.12669374     0.11100
H1461       H  0.85231078  0.24854883  0.07940470     0.16500
H1462       H  0.89799721  0.26498114  0.04086336     0.12400
H1463       H  0.90948805  0.31558654  0.15612496     0.15300
H1464       H  0.86395424  0.29896875  0.19396308     0.15100
C1465       C  0.85763371  0.27488275  0.35813083    -0.17800
C1466       C  0.85545363  0.26379859  0.38145342    -0.20000
C1467       C  0.86793032  0.26145914  0.40250514     0.20700
C1468       C  0.88294943  0.27005962  0.39947023    -0.02900
C1469       C  0.88512962  0.28128038  0.37598985    -0.06000
C1470       C  0.87232076  0.28385728  0.35543551     0.21000
C1471       C  0.89992624  0.29030635  0.37366911     0.19100
C1472       C  0.91256135  0.28768610  0.39426035    -0.17400
C1473       C  0.91039237  0.27661821  0.41751798    -0.19700
C1474       C  0.89555560  0.26796859  0.42058016     0.20600
C1475       C  0.89281500  0.25790435  0.44515756    -0.32700
C1476       C  0.87764566  0.24994491  0.44903673     0.01300
C1477       C  0.86540363  0.25132976  0.42727569    -0.24000
C1478       C  0.87428589  0.29565447  0.33305433    -0.28600
C1479       C  0.88883383  0.30496601  0.33115969     0.07000
C1480       C  0.90167110  0.30208458  0.35127234    -0.27300
H1481       H  0.84769683  0.27666360  0.34249462     0.11700
H1482       H  0.84386470  0.25730458  0.38336328     0.12800
H1483       H  0.92401740  0.29444268  0.39271122     0.11900
H1484       H  0.92019921  0.27509470  0.43350505     0.11100
H1485       H  0.90216406  0.25691212  0.46216903     0.16500
H1486       H  0.85361757  0.24536765  0.43056836     0.12400
H1487       H  0.86438993  0.29791870  0.31751352     0.15300
H1488       H  0.91288215  0.30925800  0.34971513     0.15100
C1489       C  0.85838160  0.53628144  0.37974643    -0.17800
C1490       C  0.85820581  0.54809233  0.35726167    -0.20000
C1491       C  0.87132459  0.55918695  0.35409862     0.20700
C1492       C  0.88480137  0.55829536  0.37375132    -0.02900
C1493       C  0.88504004  0.54627840  0.39628938    -0.06000
C1494       C  0.87172143  0.53527833  0.39940629     0.21000
C1495       C  0.89859573  0.54530727  0.41571824     0.19100
C1496       C  0.91169556  0.55641825  0.41263336    -0.17400
C1497       C  0.91139085  0.56840690  0.39052304    -0.19700
C1498       C  0.89802786  0.56944434  0.37097093     0.20600
C1499       C  0.89763773  0.58146553  0.34877707    -0.32700
C1500       C  0.88429025  0.58240434  0.32913549     0.01300
C1501       C  0.87119206  0.57120534  0.33179035    -0.24000
C1502       C  0.87199168  0.52348589  0.42209183    -0.28600
C1503       C  0.88554981  0.52234132  0.44139506     0.07000
C1504       C  0.89882244  0.53327946  0.43792349    -0.27300
H1505       H  0.84806997  0.52791310  0.38174618     0.11700
H1506       H  0.84776280  0.54858984  0.34240141     0.12800
H1507       H  0.92217822  0.55586789  0.42739922     0.11900
H1508       H  0.92163679  0.57686810  0.38869205     0.11100
H1509       H  0.90770092  0.59014064  0.34669050     0.16500
H1510       H  0.86086794  0.57201490  0.31668724     0.12400
H1511       H  0.86174928  0.51505344  0.42447527     0.15300
H1512       H  0.90926232  0.53257559  0.45278825     0.15100
C1513       C  0.91540562  0.55610752  0.09871273    -0.17800
C1514       C  0.91502093  0.56834119  0.12042138    -0.20000
C1515       C  0.90064291  0.57115456  0.13674534     0.20700
C1516       C  0.88644267  0.56166126  0.13097482    -0.02900
C1517       C  0.88680613  0.54939964  0.10895510    -0.06000
C1518       C  0.90139406  0.54654217  0.09288906     0.21000
C1519       C  0.87260785  0.53993887  0.10317054     0.19100
C1520       C  0.85819324  0.54280591  0.11937416    -0.17400
C1521       C  0.85785640  0.55489071  0.14132615    -0.19700
C1522       C  0.87191264  0.56433285  0.14734842     0.20600
C1523       C  0.87175205  0.57631339  0.16958591    -0.32700
C1524       C  0.88588129  0.58566955  0.17544156     0.01300
C1525       C  0.90023408  0.58318250  0.15890721    -0.24000
C1526       C  0.90173214  0.53412870  0.07138670    -0.28600
C1527       C  0.88762149  0.52464629  0.06552743     0.07000
C1528       C  0.87308746  0.52770402  0.08141813    -0.27300
H1529       H  0.92668394  0.55409805  0.08652054     0.11700
H1530       H  0.92600685  0.57553715  0.12457407     0.12800
H1531       H  0.84719470  0.53563739  0.11516916     0.11900
H1532       H  0.84661193  0.55682015  0.15365941     0.11100
H1533       H  0.86071042  0.57837163  0.18246428     0.16500
H1534       H  0.91108557  0.59049208  0.16362936     0.12400
H1535       H  0.91296305  0.53189609  0.05915362     0.15300
H1536       H  0.86217663  0.52039850  0.07716661     0.15100
C1537       C  0.78949316  0.78319418  0.00529429    -0.17800
C1538       C  0.80152425  0.77101111  0.00842670    -0.20000
C1539       C  0.81824899  0.77525415  0.00955307     0.20700
C1540       C  0.82291796  0.79194512  0.00754668    -0.02900
C1541       C  0.81077271  0.80423710  0.00394634    -0.06000
C1542       C  0.79399285  0.79981370  0.00302063     0.21000
C1543       C  0.81540116  0.82094351  0.00161698     0.19100
C1544       C  0.83009947  0.82667315  0.49751202    -0.17400
C1545       C  0.84185085  0.81420887  0.50145782    -0.19700
C1546       C  0.83699831  0.79768320  0.50409853     0.20600
C1547       C  0.84870748  0.78504135  0.50782271    -0.32700
C1548       C  0.84716656  0.76730223  0.01217642     0.01300
C1549       C  0.83040012  0.76306319  0.01177967    -0.24000
C1550       C  0.78197958  0.81212374  0.00080715    -0.28600
C1551       C  0.78646025  0.82882261  0.99955115     0.07000
C1552       C  0.80318556  0.83314847  0.99908823    -0.27300
H1553       H  0.77665292  0.77961703  0.00470364     0.11700
H1554       H  0.79774570  0.75825520  0.00992416     0.12800
H1555       H  0.83418753  0.83932558  0.49586602     0.11900
H1556       H  0.85475447  0.81750913  0.50252486     0.11100
H1557       H  0.86172056  0.78798096  0.50812918     0.16500
H1558       H  0.82687481  0.75019675  0.01218901     0.12400
H1559       H  0.76905775  0.80879988  0.00130876     0.15300
H1560       H  0.80663353  0.84603186  0.99867410     0.15100
C1561       C  0.94544654  0.79864470  0.05373161    -0.17800
C1562       C  0.93231672  0.78751284  0.05394840    -0.20000
C1563       C  0.92370455  0.78393028  0.02788394     0.20700
C1564       C  0.92844649  0.79159485  0.00127796    -0.02900
C1565       C  0.94173315  0.80278547  0.00103942    -0.06000
C1566       C  0.95022326  0.80635847  0.02742873     0.21000
C1567       C  0.94275089  0.81091122  0.48042754     0.19100
C1568       C  0.93262524  0.80949191  0.45547731    -0.17400
C1569       C  0.91907639  0.79892529  0.45567528    -0.19700
C1570       C  0.91543876  0.78958847  0.48081198     0.20600
C1571       C  0.90212210  0.77870207  0.48081128    -0.32700
C1572       C  0.90230320  0.76885946  0.00156221     0.01300
C1573       C  0.91059111  0.77267048  0.02787792    -0.24000
C1574       C  0.96330006  0.81761698  0.02709646    -0.28600
C1575       C  0.96812282  0.82529751  0.00067929     0.07000
C1576       C  0.95969809  0.82152839  0.97438880    -0.27300
H1577       H  0.95187293  0.80122563  0.07417311     0.11700
H1578       H  0.92889875  0.78169749  0.07452692     0.12800
H1579       H  0.93520332  0.81654227  0.43576069     0.11900
H1580       H  0.91148591  0.79798313  0.43607607     0.11100
H1581       H  0.89456172  0.77752632  0.46118722     0.16500
H1582       H  0.90718485  0.76648884  0.04812998     0.12400
H1583       H  0.96973073  0.82038731  0.04746758     0.15300
H1584       H  0.95899315  0.82863735  0.46068191     0.15100
C1585       C  0.90347165  0.69438136  0.42013479    -0.17800
C1586       C  0.90538240  0.68373627  0.39617026    -0.20000
C1587       C  0.89241497  0.68130584  0.37619849     0.20700
C1588       C  0.87745221  0.68989012  0.38010635    -0.02900
C1589       C  0.87555677  0.70066714  0.40425795    -0.06000
C1590       C  0.88857985  0.70277961  0.42444437     0.21000
C1591       C  0.86058722  0.70915597  0.40838365     0.19100
C1592       C  0.84765982  0.70682905  0.38821205    -0.17400
C1593       C  0.84951132  0.69610947  0.36428279    -0.19700
C1594       C  0.86432222  0.68754922  0.36010896     0.20600
C1595       C  0.86618580  0.67652092  0.33656185    -0.32700
C1596       C  0.88094794  0.66779462  0.33299448     0.01300
C1597       C  0.89405009  0.67027586  0.35263545    -0.24000
C1598       C  0.88651832  0.71322866  0.44865391    -0.28600
C1599       C  0.87177050  0.72204856  0.45290021     0.07000
C1600       C  0.85876717  0.71977610  0.43261074    -0.27300
H1601       H  0.91362265  0.69598606  0.43539603     0.11700
H1602       H  0.91695548  0.67729626  0.39339673     0.12800
H1603       H  0.83608012  0.71325399  0.39100687     0.11900
H1604       H  0.83932338  0.69444614  0.34912377     0.11100
H1605       H  0.85611931  0.67446710  0.32126834     0.16500
H1606       H  0.90540003  0.66345430  0.34966769     0.12400
H1607       H  0.89655075  0.71470702  0.46424026     0.15300
H1608       H  0.84712927  0.72595212  0.43539839     0.15100
C1609       C  0.85547935  0.71446645  0.12730140    -0.17800
C1610       C  0.85622107  0.70287224  0.15009932    -0.20000
C1611       C  0.87045317  0.69337264  0.15447974     0.20700
C1612       C  0.88422531  0.69584266  0.13607988    -0.02900
C1613       C  0.88350219  0.70760621  0.11314388    -0.06000
C1614       C  0.86896593  0.71680761  0.10847363     0.21000
C1615       C  0.89706195  0.70962957  0.09409919     0.19100
C1616       C  0.91137897  0.70029712  0.09869666    -0.17400
C1617       C  0.91211577  0.68870165  0.12145495    -0.19700
C1618       C  0.89854266  0.68621265  0.14000578     0.20600
C1619       C  0.89890460  0.67404934  0.16199601    -0.32700
C1620       C  0.88517088  0.67143325  0.18014501     0.01300
C1621       C  0.87104989  0.68122618  0.17650565    -0.24000
C1622       C  0.86785358  0.72744695  0.08407761    -0.28600
C1623       C  0.88098344  0.72873392  0.06414970     0.07000
C1624       C  0.89571697  0.72022295  0.06979618    -0.27300
H1625       H  0.84421825  0.72137424  0.12402611     0.11700
H1626       H  0.84554269  0.70114106  0.16401883     0.12800
H1627       H  0.92189526  0.70171097  0.08427130     0.11900
H1628       H  0.92321345  0.68146685  0.12421714     0.11100
H1629       H  0.90977106  0.66646869  0.16486871     0.16500
H1630       H  0.86045720  0.67913496  0.19050298     0.12400
H1631       H  0.85637110  0.73370902  0.07928938     0.15300
H1632       H  0.90571429  0.72100157  0.05404806     0.15100
C1633       C  0.87406278  0.73264824  0.98106913     0.86500
C1634       C  0.85860279  0.74331836  0.98545297    -0.53700
C1635       C  0.85603916  0.75504493  0.50635770     0.09400
C1636       C  0.87180845  0.75316836  0.52535414     0.20400
C1637       C  0.88817072  0.74502085  0.97823536    -0.54400
C1638       C  0.88587374  0.75605399  0.50320366     0.09500
C1639       C  0.87667411  0.72444453  0.01106797    -0.54000
C1640       C  0.87280156  0.73457500  0.53275857     0.10100
H1641       H  0.84775710  0.74288261  0.97160056     0.14600
H1642       H  0.87222799  0.76142177  0.54487710     0.00400
H1643       H  0.89661541  0.74496932  0.95969133     0.14900
H1644       H  0.87295166  0.71127785  0.51020131     0.14700
N1645       N  0.88303068  0.62786876  0.70918290    -0.36600
N1646       N  0.88405051  0.65195954  0.75579088    -0.57100
N1647       N  0.88350793  0.62534888  0.79943618    -0.36600
N1648       N  0.88070946  0.60126626  0.75289454    -0.57100
C1649       C  0.88035081  0.64178102  0.69342924     0.27000
C1650       C  0.87868022  0.61500561  0.69190279     0.27000
C1651       C  0.88066080  0.63851031  0.81695457     0.27000
C1652       C  0.87993139  0.61171796  0.81534542     0.27000
C1653       C  0.88673515  0.66217518  0.73276558     0.35600
C1654       C  0.88650645  0.66088873  0.78053597     0.35600
C1655       C  0.88280235  0.59227060  0.72814597     0.35600
C1656       C  0.88339493  0.59093234  0.77575721     0.35600
C1657       C  0.87446687  0.63762301  0.66565472    -0.21900
C1658       C  0.87338092  0.62075298  0.66473371    -0.21900
C1659       C  0.87529965  0.63312287  0.84437784    -0.21900
C1660       C  0.87497413  0.61622868  0.84340809    -0.21900
C1661       C  0.89092355  0.67770255  0.74293035    -0.22900
C1662       C  0.89082721  0.67687992  0.77320420    -0.22900
C1663       C  0.88661982  0.57612076  0.73533232    -0.22900
C1664       C  0.88696425  0.57527457  0.76553593    -0.22900
C1665       C  0.88376582  0.65806454  0.70292411    -0.18300
C1666       C  0.88046091  0.59818091  0.69917011    -0.18300
C1667       C  0.88188851  0.59529385  0.80573370    -0.18300
C1668       C  0.88359455  0.65520048  0.80954505    -0.18300
H1669       H  0.87140237  0.64583655  0.64771137     0.14600
H1670       H  0.86931187  0.61352082  0.64603555     0.14600
H1671       H  0.87209027  0.64056388  0.86332111     0.14600
H1672       H  0.87149531  0.60818202  0.86134226     0.14600
H1673       H  0.89340786  0.68857561  0.72993193     0.12900
H1674       H  0.89331225  0.68699568  0.78810534     0.12900
H1675       H  0.88887681  0.56597912  0.72038284     0.12900
H1676       H  0.88950754  0.56438326  0.77847910     0.12900
H1677       H  0.88920750  0.62701884  0.72917689     0.26200
H1678       H  0.88931640  0.62559802  0.77908559     0.26200
C1679       C  0.87037677  0.24363244  0.53161607     0.86500
C1680       C  0.85503015  0.23293066  0.52659119    -0.53700
C1681       C  0.85611532  0.22274080  0.50268170     0.09400
C1682       C  0.87347186  0.22352271  0.98503876     0.20400
C1683       C  0.88460107  0.23129887  0.53277134    -0.54400
C1684       C  0.88579810  0.22132138  0.50873930     0.09500
C1685       C  0.87265116  0.25284588  0.50243791    -0.54000
C1686       C  0.87426974  0.24193195  0.97679377     0.10100
H1687       H  0.84448545  0.23247138  0.54108308     0.14600
H1688       H  0.87363909  0.21500119  0.96587082     0.00400
H1689       H  0.89321488  0.23065834  0.55110316     0.14900
H1690       H  0.87375745  0.26614917  0.50107998     0.14700
N1691       N  0.88371701  0.35095070  0.71216790    -0.36600
N1692       N  0.88109391  0.32456296  0.75570934    -0.57100
N1693       N  0.88674405  0.34824993  0.80219059    -0.36600
N1694       N  0.88790517  0.37472812  0.75856465    -0.57100
C1695       C  0.87801884  0.33847836  0.69526061     0.27000
C1696       C  0.88175735  0.36503883  0.69663050     0.27000
C1697       C  0.88229227  0.33489829  0.81810581     0.27000
C1698       C  0.88493215  0.36155698  0.81980938     0.27000
C1699       C  0.88198019  0.31548411  0.73085855     0.35600
C1700       C  0.88381342  0.31406795  0.77825178     0.35600
C1701       C  0.89087643  0.38472478  0.73536831     0.35600
C1702       C  0.89166403  0.38339494  0.78307194     0.35600
C1703       C  0.87245678  0.34465656  0.66855821    -0.21900
C1704       C  0.87487897  0.36139805  0.66935489    -0.21900
C1705       C  0.87785550  0.33972768  0.84630265    -0.21900
C1706       C  0.87946718  0.35656738  0.84736335    -0.21900
C1707       C  0.88516309  0.29914925  0.73763929    -0.22900
C1708       C  0.88629842  0.29825235  0.76775329    -0.22900
C1709       C  0.89651369  0.39986293  0.74521668    -0.22900
C1710       C  0.89700972  0.39902000  0.77545285    -0.22900
C1711       C  0.87902650  0.32155672  0.70226033    -0.18300
C1712       C  0.88694652  0.38089803  0.70576791    -0.18300
C1713       C  0.88884954  0.37797115  0.81221600    -0.18300
C1714       C  0.88290199  0.31841071  0.80824109    -0.18300
H1715       H  0.86746369  0.33777004  0.65015951     0.14600
H1716       H  0.87209764  0.36983235  0.65160142     0.14600
H1717       H  0.87388731  0.33192597  0.86425619     0.14600
H1718       H  0.87700986  0.36424599  0.86637124     0.14600
H1719       H  0.88641403  0.28891976  0.72250116     0.12900
H1720       H  0.88855315  0.28721701  0.78047406     0.12900
H1721       H  0.89951535  0.41055473  0.73209520     0.12900
H1722       H  0.90054173  0.40890500  0.79017714     0.12900
H1723       H  0.89042861  0.34960971  0.73151124     0.26200
H1724       H  0.89237357  0.34810052  0.78165345     0.26200
O1725       O  0.90094733  0.47283327  0.53769845    -0.74400
O1726       O  0.90131966  0.50437341  0.97352993    -0.74400
O1727       O  0.89880481  0.50609725  0.53563421    -0.74500
O1728       O  0.90261177  0.47096944  0.97712110    -0.74500
O1729       O  0.87518697  0.47032013  0.97749363    -0.74500
O1730       O  0.87143582  0.50427093  0.53451882    -0.74400
O1731       O  0.87392817  0.50348200  0.97447611    -0.74400
O1732       O  0.87360804  0.47110935  0.53594870    -0.74500
Ni1733     Ni  0.90134409  0.48906257  0.50685750     1.25400
Ni1734     Ni  0.87204523  0.48725427  0.50520805     1.25400
C1735       C  0.88741902  0.46669544  0.54717500     0.87800
C1736       C  0.88731658  0.50917061  0.96359872     0.87700
C1737       C  0.88463403  0.51078693  0.54468915     0.87700
C1738       C  0.88897677  0.46493296  0.96785577     0.87900
C1739       C  0.75108650  0.85898331  0.52845721     0.86500
C1740       C  0.76169829  0.84352254  0.52345591    -0.53700
C1741       C  0.77189602  0.84440659  0.49956954     0.09400
C1742       C  0.77168397  0.85771271  0.98656584     0.20400
C1743       C  0.76353953  0.87305940  0.52963800    -0.54400
C1744       C  0.77381042  0.87409491  0.50588172     0.09500
C1745       C  0.74195180  0.86142304  0.49933436    -0.54000
C1746       C  0.75313184  0.85818754  0.97877830     0.10100
H1747       H  0.76210154  0.83299317  0.53798177     0.14600
H1748       H  0.77972463  0.85837903  0.96690153     0.00400
H1749       H  0.76393499  0.88166666  0.54795500     0.14900
H1750       H  0.72863962  0.86250001  0.49800473     0.14700
N1751       N  0.64433871  0.86834286  0.70937853    -0.36600
N1752       N  0.67033066  0.86538705  0.75506259    -0.57100
N1753       N  0.64539169  0.86559844  0.80005550    -0.36600
N1754       N  0.61937245  0.86711046  0.75424479    -0.57100
C1755       C  0.65763908  0.86499849  0.69252726     0.27000
C1756       C  0.63078951  0.86619415  0.69223106     0.27000
C1757       C  0.65877174  0.86242483  0.81712986     0.27000
C1758       C  0.63183430  0.86299077  0.81667244     0.27000
C1759       C  0.67986911  0.86728750  0.73093246     0.35600
C1760       C  0.68045822  0.86627975  0.77879018     0.35600
C1761       C  0.60946583  0.87020604  0.73083599     0.35600
C1762       C  0.60997590  0.86871741  0.77861539     0.35600
C1763       C  0.65248537  0.86091073  0.66423804    -0.21900
C1764       C  0.63559805  0.86173425  0.66402909    -0.21900
C1765       C  0.65354923  0.85808527  0.84517969    -0.21900
C1766       C  0.63663218  0.85835109  0.84483526    -0.21900
C1767       C  0.69617068  0.86921802  0.73933362    -0.22900
C1768       C  0.69655936  0.86848270  0.76955299    -0.22900
C1769       C  0.59364372  0.87359550  0.74035768    -0.22900
C1770       C  0.59395795  0.87266502  0.77058468    -0.22900
C1771       C  0.67436047  0.86624572  0.70133289    -0.18300
C1772       C  0.61423998  0.86879172  0.70095015    -0.18300
C1773       C  0.61527434  0.86573537  0.80792661    -0.18300
C1774       C  0.67553774  0.86407212  0.80853381    -0.18300
H1775       H  0.66010805  0.85772392  0.64553590     0.14600
H1776       H  0.62779047  0.85934376  0.64515354     0.14600
H1777       H  0.66105103  0.85522543  0.86421036     0.14600
H1778       H  0.62877333  0.85570841  0.86347472     0.14600
H1779       H  0.70675656  0.87073291  0.72515134     0.12900
H1780       H  0.70752898  0.86923685  0.78303044     0.12900
H1781       H  0.58293462  0.87622593  0.72694448     0.12900
H1782       H  0.58350152  0.87448252  0.78497204     0.12900
H1783       H  0.64468103  0.87349684  0.73029813     0.26200
H1784       H  0.64539878  0.87091243  0.77933545     0.26200
C1785       C  0.26082330  0.85704828  0.97671471     0.86500
C1786       C  0.24755765  0.84357031  0.97700239    -0.53700
C1787       C  0.23624252  0.84863582  0.49819192     0.09400
C1788       C  0.23970933  0.86346251  0.51865121     0.20400
C1789       C  0.25088980  0.87312988  0.97696414    -0.54400
C1790       C  0.24029820  0.87812278  0.49704779     0.09500
C1791       C  0.26871525  0.85928939  0.50710682    -0.54000
C1792       C  0.25763487  0.86112311  0.52933729     0.10100
H1793       H  0.24627572  0.83404332  0.96054485     0.14600
H1794       H  0.23061890  0.86492294  0.53669210     0.00400
H1795       H  0.25255327  0.88248179  0.96019972     0.14900
H1796       H  0.28180402  0.85763494  0.51110586     0.14700
N1797       N  0.36459929  0.86338098  0.70403295    -0.36600
N1798       N  0.39187402  0.86324386  0.74711039    -0.57100
N1799       N  0.36822564  0.86264632  0.79451544    -0.36600
N1800       N  0.34104308  0.86034800  0.75150967    -0.57100
C1801       C  0.37759019  0.86204697  0.68560119     0.27000
C1802       C  0.35078387  0.86045726  0.68805839     0.27000
C1803       C  0.38226871  0.86041236  0.81016384     0.27000
C1804       C  0.35553589  0.85901211  0.81255336     0.27000
C1805       C  0.40061292  0.86571050  0.72221206     0.35600
C1806       C  0.40253632  0.86498906  0.76987492     0.35600
C1807       C  0.33023322  0.86168520  0.72889833     0.35600
C1808       C  0.33215183  0.86141684  0.77656939     0.35600
C1809       C  0.37194713  0.85852103  0.65738790    -0.21900
C1810       C  0.35507050  0.85753475  0.65893371    -0.21900
C1811       C  0.37841975  0.85555061  0.83860895    -0.21900
C1812       C  0.36158377  0.85463126  0.84010843    -0.21900
C1813       C  0.41698036  0.86871486  0.72924165    -0.22900
C1814       C  0.41818264  0.86825968  0.75940327    -0.22900
C1815       C  0.31436193  0.86321885  0.73965622    -0.22900
C1816       C  0.31557840  0.86313919  0.76982263    -0.22900
C1817       C  0.39436425  0.86451684  0.69309845    -0.18300
C1818       C  0.33436721  0.86102450  0.69864037    -0.18300
C1819       C  0.33859401  0.86019538  0.80549898    -0.18300
C1820       C  0.39848495  0.86312643  0.79996896    -0.18300
H1821       H  0.37922354  0.85689348  0.63763204     0.14600
H1822       H  0.34690039  0.85501649  0.64060257     0.14600
H1823       H  0.38686334  0.85289433  0.85646996     0.14600
H1824       H  0.35459349  0.85112649  0.85939469     0.14600
H1825       H  0.42706458  0.87091777  0.71420230     0.12900
H1826       H  0.42931541  0.87006367  0.77214006     0.12900
H1827       H  0.30307205  0.86430043  0.72710675     0.12900
H1828       H  0.30537954  0.86416827  0.78502194     0.12900
H1829       H  0.36511508  0.86766036  0.72548964     0.26200
H1830       H  0.36720182  0.86806879  0.77395153     0.26200
O1831       O  0.52173867  0.88418109  0.53268567    -0.74400
O1832       O  0.48834752  0.87973790  0.97086762    -0.74400
O1833       O  0.48823721  0.88340390  0.53196172    -0.74500
O1834       O  0.52175510  0.87996443  0.97113153    -0.74500
O1835       O  0.52195222  0.85255285  0.97193994    -0.74500
O1836       O  0.48883476  0.85600457  0.53067209    -0.74400
O1837       O  0.48867427  0.85232520  0.97149748    -0.74400
O1838       O  0.52224201  0.85679218  0.53180409    -0.74500
Ni1839     Ni  0.50501770  0.88506764  0.50247600     1.25400
Ni1840     Ni  0.50578933  0.85573017  0.50133491     1.25400
C1841       C  0.52755542  0.87048672  0.54220782     0.87800
C1842       C  0.48308226  0.86588363  0.96108385     0.87700
C1843       C  0.48290117  0.86945647  0.54094984     0.87700
C1844       C  0.52739743  0.86619742  0.96174373     0.87900
C1845       C  0.75032265  0.12017363  0.97829427     0.86500
C1846       C  0.76185192  0.13508888  0.98060617    -0.53700
C1847       C  0.77119967  0.13542254  0.00567110     0.09400
C1848       C  0.76913596  0.11967908  0.52677041     0.20400
C1849       C  0.76174885  0.10527153  0.98223393    -0.54400
C1850       C  0.77118120  0.10571142  0.00714661     0.09500
C1851       C  0.74019096  0.12059532  0.00654446    -0.54000
C1852       C  0.75046837  0.11946362  0.53355159     0.10100
H1853       H  0.76294655  0.14430512  0.96339006     0.14600
H1854       H  0.77717450  0.12018632  0.54658281     0.00400
H1855       H  0.76331524  0.09544464  0.96642052     0.14900
H1856       H  0.72681582  0.12077529  0.00645055     0.14700
N1857       N  0.64106525  0.12294264  0.80051555    -0.36600
N1858       N  0.61646093  0.12009460  0.75543494    -0.57100
N1859       N  0.64235583  0.12170597  0.71016647    -0.36600
N1860       N  0.66704470  0.12296785  0.75531199    -0.57100
C1861       C  0.62778338  0.11874282  0.81689337     0.27000
C1862       C  0.65457552  0.11952763  0.81680297     0.27000
C1863       C  0.62926037  0.11695326  0.69383273     0.27000
C1864       C  0.65602821  0.11915383  0.69368543     0.27000
C1865       C  0.60648070  0.12302779  0.77869622     0.35600
C1866       C  0.60715142  0.12199375  0.73100770     0.35600
C1867       C  0.67618336  0.12603952  0.77956507     0.35600
C1868       C  0.67683017  0.12599041  0.73184612     0.35600
C1869       C  0.63292812  0.11263838  0.84389864    -0.21900
C1870       C  0.64983895  0.11313914  0.84385650    -0.21900
C1871       C  0.63464693  0.11149304  0.66648671    -0.21900
C1872       C  0.65153377  0.11290414  0.66639239    -0.21900
C1873       C  0.59076500  0.12685530  0.76901065    -0.22900
C1874       C  0.59115795  0.12609662  0.73876979    -0.22900
C1875       C  0.69187623  0.13098722  0.77150636    -0.22900
C1876       C  0.69228562  0.13094084  0.74122575    -0.22900
C1877       C  0.61115173  0.12092321  0.80847353    -0.18300
C1878       C  0.67100242  0.12307107  0.80877452    -0.18300
C1879       C  0.67235448  0.12301356  0.70222478    -0.18300
C1880       C  0.61254743  0.11876218  0.70198553    -0.18300
H1881       H  0.62530227  0.10829130  0.86180494     0.14600
H1882       H  0.65775339  0.10933367  0.86182214     0.14600
H1883       H  0.62717383  0.10717726  0.64827742     0.14600
H1884       H  0.65956834  0.10978679  0.64821579     0.14600
H1885       H  0.58007394  0.12962628  0.78231635     0.12900
H1886       H  0.58079529  0.12812821  0.72419535     0.12900
H1887       H  0.70205822  0.13401828  0.78594038     0.12900
H1888       H  0.70282526  0.13391447  0.72768900     0.12900
H1889       H  0.64093430  0.12950680  0.78085377     0.26200
H1890       H  0.64176103  0.12809168  0.72998614     0.26200
C1891       C  0.25695803  0.11614516  0.53107396     0.86500
C1892       C  0.24512218  0.13090522  0.53209399    -0.53700
C1893       C  0.23520909  0.13243465  0.50776953     0.09400
C1894       C  0.24015025  0.12082202  0.98386989     0.20400
C1895       C  0.24549796  0.10134101  0.52585917    -0.54400
C1896       C  0.23542561  0.10278168  0.50180190     0.09500
C1897       C  0.26631052  0.11817291  0.50210636    -0.54000
C1898       C  0.25867863  0.12169391  0.97627981     0.10100
H1899       H  0.24444486  0.13923739  0.55079520     0.14600
H1900       H  0.23179871  0.12223324  0.96461946     0.00400
H1901       H  0.24429370  0.09102341  0.54073877     0.14900
H1902       H  0.27966373  0.11837627  0.50086942     0.14700
N1903       N  0.36418975  0.11682797  0.80116050    -0.36600
N1904       N  0.39119792  0.11252663  0.75953004    -0.57100
N1905       N  0.36762018  0.11295096  0.71138602    -0.36600
N1906       N  0.34049375  0.11539261  0.75300032    -0.57100
C1907       C  0.37666742  0.11331271  0.81995537     0.27000
C1908       C  0.34996548  0.11541466  0.81641810     0.27000
C1909       C  0.38150362  0.10871980  0.69680389     0.27000
C1910       C  0.35472944  0.10953023  0.69345589     0.27000
C1911       C  0.39994202  0.11539220  0.78438069     0.35600
C1912       C  0.40180278  0.11418147  0.73679200     0.35600
C1913       C  0.33029509  0.12003730  0.77500991     0.35600
C1914       C  0.33213945  0.11769690  0.72753348     0.35600
C1915       C  0.37031026  0.10982118  0.84759970    -0.21900
C1916       C  0.35347157  0.11112377  0.84536593    -0.21900
C1917       C  0.37740490  0.10252782  0.66924812    -0.21900
C1918       C  0.36050090  0.10301462  0.66714645    -0.21900
C1919       C  0.41623064  0.11862196  0.77744031    -0.22900
C1920       C  0.41738838  0.11795332  0.74726092    -0.22900
C1921       C  0.31534590  0.12518210  0.76350761    -0.22900
C1922       C  0.31649932  0.12366381  0.73340988    -0.22900
C1923       C  0.39365826  0.11418786  0.81332539    -0.18300
C1924       C  0.33398629  0.11882391  0.80539762    -0.18300
C1925       C  0.33808352  0.11352813  0.69921677    -0.18300
C1926       C  0.39777672  0.11148427  0.70684132    -0.18300
H1927       H  0.37710215  0.10682745  0.86743383     0.14600
H1928       H  0.34480785  0.10925973  0.86314617     0.14600
H1929       H  0.38574968  0.09833572  0.65224485     0.14600
H1930       H  0.35330980  0.09933619  0.64814027     0.14600
H1931       H  0.42624112  0.12117501  0.79254329     0.12900
H1932       H  0.42847339  0.11986066  0.73452963     0.12900
H1933       H  0.30469117  0.12948748  0.77554932     0.12900
H1934       H  0.30689042  0.12653803  0.71767914     0.12900
H1935       H  0.36539614  0.12172185  0.78016254     0.26200
H1936       H  0.36712397  0.11981324  0.73067848     0.26200
O1937       O  0.48857973  0.09933752  0.53813052    -0.74400
O1938       O  0.52000778  0.09876493  0.97508338    -0.74400
O1939       O  0.52177380  0.09937011  0.53446327    -0.74500
O1940       O  0.48664674  0.09768877  0.97830231    -0.74500
O1941       O  0.48630797  0.12509737  0.97921533    -0.74500
O1942       O  0.52141718  0.12678950  0.53423866    -0.74400
O1943       O  0.51972506  0.12615934  0.97783366    -0.74400
O1944       O  0.48821778  0.12676182  0.53754450    -0.74500
Ni1945     Ni  0.50421593  0.09828588  0.50632536     1.25400
Ni1946     Ni  0.50392088  0.12765459  0.50614250     1.25400
C1947       C  0.48332824  0.11308309  0.54843953     0.87800
C1948       C  0.52526514  0.11284391  0.96642708     0.87700
C1949       C  0.52734333  0.11317981  0.54374218     0.87700
C1950       C  0.48071859  0.11141542  0.96931530     0.87900
C1951       C  0.13804749  0.73685790  0.53661358     0.86500
C1952       C  0.15155586  0.74999690  0.53552591    -0.53700
C1953       C  0.15105567  0.75993280  0.51110655     0.09400
C1954       C  0.13443685  0.75527803  0.98717372     0.20400
C1955       C  0.12206187  0.74646446  0.53250774    -0.54400
C1956       C  0.12124544  0.75582822  0.50757981     0.09500
C1957       C  0.14035248  0.72716122  0.50809244    -0.54000
C1958       C  0.13638750  0.73683329  0.97916502     0.10100
H1959       H  0.16091887  0.75136508  0.55225741     0.14600
H1960       H  0.13383652  0.76353954  0.96774724     0.00400
H1961       H  0.11232008  0.74609161  0.54884427     0.14900
H1962       H  0.14189846  0.71387563  0.50771773     0.14700
N1963       N  0.12811459  0.62732774  0.71243061    -0.36600
N1964       N  0.12994611  0.65309762  0.75809012    -0.57100
N1965       N  0.13027658  0.62806257  0.80311159    -0.36600
N1966       N  0.13022793  0.60229609  0.75741070    -0.57100
C1967       C  0.13103833  0.64081061  0.69579973     0.27000
C1968       C  0.13136206  0.61396393  0.69545716     0.27000
C1969       C  0.13329350  0.64151118  0.82001778     0.27000
C1970       C  0.13340559  0.61464760  0.81978208     0.27000
C1971       C  0.12681259  0.66253433  0.73425936     0.35600
C1972       C  0.12812835  0.66294175  0.78195260     0.35600
C1973       C  0.12817732  0.59231265  0.73378951     0.35600
C1974       C  0.12899226  0.59267999  0.78156537     0.35600
C1975       C  0.13598581  0.63592420  0.66782624    -0.21900
C1976       C  0.13602418  0.61903502  0.66753479    -0.21900
C1977       C  0.13807598  0.63654901  0.84797160    -0.21900
C1978       C  0.13814354  0.61962760  0.84784187    -0.21900
C1979       C  0.12299162  0.67844446  0.74306243    -0.22900
C1980       C  0.12398012  0.67873131  0.77323769    -0.22900
C1981       C  0.12583224  0.57623085  0.74296599    -0.22900
C1982       C  0.12631646  0.57646347  0.77321915    -0.22900
C1983       C  0.12868821  0.65740789  0.70462647    -0.18300
C1984       C  0.12969429  0.59730731  0.70407945    -0.18300
C1985       C  0.13138208  0.59802881  0.81097403    -0.18300
C1986       C  0.13103192  0.65811625  0.81141445    -0.18300
H1987       H  0.13924547  0.64369224  0.64938498     0.14600
H1988       H  0.13921458  0.61140365  0.64883246     0.14600
H1989       H  0.14106662  0.64429830  0.86665136     0.14600
H1990       H  0.14122549  0.61188249  0.86644637     0.14600
H1991       H  0.12002275  0.68885999  0.72919571     0.12900
H1992       H  0.12194308  0.68937329  0.78713271     0.12900
H1993       H  0.12423426  0.56541001  0.72932367     0.12900
H1994       H  0.12513049  0.56584118  0.78742675     0.12900
H1995       H  0.12260009  0.62732035  0.73304485     0.26200
H1996       H  0.12478231  0.62793371  0.78248967     0.26200
C1997       C  0.13574738  0.24184036  0.97586040     0.86500
C1998       C  0.14914662  0.22857737  0.97683351    -0.53700
C1999       C  0.14943379  0.21962905  0.00227647     0.09400
C2000       C  0.13629025  0.22571883  0.52493449     0.20400
C2001       C  0.11964200  0.23258756  0.98240238    -0.54400
C2002       C  0.11974830  0.22373024  0.00799503     0.09500
C2003       C  0.13862748  0.25221394  0.00360467    -0.54000
C2004       C  0.13925109  0.24427620  0.53029463     0.10100
H2005       H  0.15780399  0.22652600  0.95897503     0.14600
H2006       H  0.13615214  0.21826468  0.54542824     0.00400
H2007       H  0.10894757  0.23264146  0.96825757     0.14900
H2008       H  0.14006170  0.26550203  0.00295178     0.14700
N2009       N  0.13527482  0.35177464  0.79935291    -0.36600
N2010       N  0.13793906  0.32604280  0.75432149    -0.57100
N2011       N  0.13730519  0.35107401  0.70895396    -0.36600
N2012       N  0.13230726  0.37665456  0.75398435    -0.57100
C2013       C  0.13338089  0.33825292  0.81631028     0.27000
C2014       C  0.13152758  0.36499323  0.81620598     0.27000
C2015       C  0.13649268  0.33734766  0.69200227     0.27000
C2016       C  0.13301112  0.36399138  0.69178796     0.27000
C2017       C  0.14040632  0.31681425  0.77867869     0.35600
C2018       C  0.14203981  0.31649239  0.73103133     0.35600
C2019       C  0.13353271  0.38672745  0.77766948     0.35600
C2020       C  0.13365013  0.38632852  0.72990624     0.35600
C2021       C  0.12842516  0.34296376  0.84436756    -0.21900
C2022       C  0.12738074  0.35984081  0.84435177    -0.21900
C2023       C  0.13182920  0.34165593  0.66361073    -0.21900
C2024       C  0.12968147  0.35844567  0.66345436    -0.21900
C2025       C  0.14595909  0.30128421  0.77081483    -0.22900
C2026       C  0.14703970  0.30109765  0.74063705    -0.22900
C2027       C  0.13517249  0.40291279  0.76859087    -0.22900
C2028       C  0.13519828  0.40267083  0.73833914    -0.22900
C2029       C  0.13706434  0.32188432  0.80788468    -0.18300
C2030       C  0.13269932  0.38162143  0.80741397    -0.18300
C2031       C  0.13306745  0.38076174  0.70035683    -0.18300
C2032       C  0.14034387  0.32110333  0.70113746    -0.18300
H2033       H  0.12610209  0.33509062  0.86313178     0.14600
H2034       H  0.12405397  0.36744590  0.86302295     0.14600
H2035       H  0.13018798  0.33356141  0.64486621     0.14600
H2036       H  0.12615242  0.36574797  0.64452987     0.14600
H2037       H  0.14890684  0.29112726  0.78530863     0.12900
H2038       H  0.15094302  0.29076217  0.72729521     0.12900
H2039       H  0.13622750  0.41376885  0.78231692     0.12900
H2040       H  0.13631946  0.41332123  0.72418334     0.12900
H2041       H  0.14071119  0.35209819  0.77873709     0.26200
H2042       H  0.14227976  0.35185632  0.72996404     0.26200
O2043       O  0.11978726  0.50532988  0.53543429    -0.74400
O2044       O  0.12461741  0.47337043  0.97585161    -0.74400
O2045       O  0.12053695  0.47204412  0.53279765    -0.74500
O2046       O  0.12465169  0.50661988  0.97806119    -0.74500
O2047       O  0.15205302  0.50654460  0.97641428    -0.74500
O2048       O  0.14794449  0.47250438  0.53354016    -0.74400
O2049       O  0.15201623  0.47308301  0.97456908    -0.74400
O2050       O  0.14718992  0.50583826  0.53631262    -0.74500
Ni2051     Ni  0.11932543  0.48931428  0.50424913     1.25400
Ni2052     Ni  0.14867300  0.48994446  0.50511951     1.25400
C2053       C  0.13330539  0.51094740  0.54607804     0.87800
C2054       C  0.13810618  0.46778876  0.96513917     0.87700
C2055       C  0.13426490  0.46660825  0.54275379     0.87700
C2056       C  0.13814907  0.51229980  0.96779932     0.87900
O2057       O  0.15154684  0.00654307  0.97695008    -0.74400
O2058       O  0.11962313  0.97207575  0.97910312    -0.74400
O2059       O  0.11823869  0.00546035  0.97869725    -0.74500
O2060       O  0.15271695  0.97303888  0.97814420    -0.74500
O2061       O  0.14974244  0.97288942  0.51633460    -0.74500
O2062       O  0.11559164  0.00494555  0.51707243    -0.74400
O2063       O  0.11660660  0.97185753  0.51795787    -0.74400
O2064       O  0.14857547  0.00615588  0.51486776    -0.74500
Ni2065     Ni  0.13554369  0.98928352  0.97647037     1.25400
Ni2066     Ni  0.13268951  0.98897298  0.51821988     1.25400
C2067       C  0.15319542  0.01200692  0.48999158     0.87800
C2068       C  0.11110661  0.96574061  0.49386003     0.87700
C2069       C  0.10931131  0.01013345  0.49294071     0.87700
C2070       C  0.15508398  0.96718394  0.49185788     0.87900
O2071       O  0.98793241  0.10639860  0.53199164    -0.74400
O2072       O  0.02159445  0.13899459  0.53627985    -0.74400
O2073       O  0.98803992  0.13966342  0.53520210    -0.74500
O2074       O  0.02105737  0.10576846  0.53223646    -0.74500
O2075       O  0.02305139  0.10643255  0.98796392    -0.74500
O2076       O  0.98872560  0.13837155  0.98808071    -0.74400
O2077       O  0.02191311  0.13986134  0.99158688    -0.74400
O2078       O  0.98984064  0.10514653  0.98511304    -0.74500
Ni2079     Ni  0.00464338  0.12270770  0.53568125     1.25400
Ni2080     Ni  0.00596085  0.12253504  0.98647681     1.25400
C2081       C  0.98248640  0.10154225  0.50696597     0.87800
C2082       C  0.02720578  0.14524978  0.51249328     0.87700
C2083       C  0.98263414  0.14588800  0.51102650     0.87700
C2084       C  0.02626909  0.10085355  0.50702490     0.87900
O2085       O  0.98836179  0.87592116  0.97506577    -0.74400
O2086       O  0.02129371  0.84215956  0.97821619    -0.74400
O2087       O  0.98770748  0.84259323  0.97632605    -0.74500
O2088       O  0.02176832  0.87522354  0.97713153    -0.74500
O2089       O  0.02174487  0.87140831  0.52755399    -0.74500
O2090       O  0.98668969  0.83990838  0.52924860    -0.74400
O2091       O  0.02015813  0.83806137  0.52797368    -0.74400
O2092       O  0.98866136  0.87341787  0.52853747    -0.74500
Ni2093     Ni  0.00478296  0.85891998  0.97492460     1.25400
Ni2094     Ni  0.00430338  0.85565048  0.53010037     1.25400
C2095       C  0.98347384  0.87933096  0.50399682     0.87800
C2096       C  0.02551589  0.83274609  0.50314526     0.87700
C2097       C  0.98048431  0.83477586  0.50492434     0.87700
C2098       C  0.02722673  0.87649167  0.50272090     0.87900
O2099       O  0.85667546  0.97387957  0.97577014    -0.74400
O2100       O  0.88926355  0.00816245  0.97675783    -0.74400
O2101       O  0.88990903  0.97488183  0.97441346    -0.74500
O2102       O  0.85590713  0.00753512  0.97835053    -0.74500
O2103       O  0.85856954  0.00598868  0.53267103    -0.74500
O2104       O  0.89334344  0.97398339  0.53096245    -0.74400
O2105       O  0.89190596  0.00720733  0.53229638    -0.74400
O2106       O  0.85998256  0.97248745  0.53083003    -0.74500
Ni2107     Ni  0.87283915  0.99116933  0.97455768     1.25400
Ni2108     Ni  0.87590720  0.98987465  0.53345559     1.25400
C2109       C  0.85468598  0.96701606  0.50600830     0.87800
C2110       C  0.89710710  0.01310744  0.50782280     0.87700
C2111       C  0.89895677  0.96896428  0.50613521     0.87700
C2112       C  0.85319459  0.01203832  0.50840355     0.87900
C2113       C  0.94375465  0.91515318  0.45189313    -0.17800
C2114       C  0.93190648  0.92763688  0.45223725    -0.20000
C2115       C  0.92853378  0.93627635  0.47834247     0.20700
C2116       C  0.93744137  0.93255457  0.50422746    -0.02900
C2117       C  0.94940703  0.91993264  0.50388466    -0.06000
C2118       C  0.95241740  0.91107172  0.47766515     0.21000
C2119       C  0.95808330  0.91595089  0.52990072     0.19100
C2120       C  0.95510558  0.92498877  0.55575474    -0.17400
C2121       C  0.94323814  0.93748884  0.55610208    -0.19700
C2122       C  0.93415626  0.94119299  0.53058410     0.20600
C2123       C  0.92167606  0.95317211  0.53105538    -0.32700
C2124       C  0.91249775  0.95671039  0.50544257     0.01300
C2125       C  0.91621334  0.94836145  0.47908688    -0.24000
C2126       C  0.96376506  0.89805538  0.47779447    -0.28600
C2127       C  0.97202637  0.89357534  0.50389403     0.07000
C2128       C  0.96931561  0.90279651  0.52975089    -0.27300
H2129       H  0.94597132  0.90852078  0.43154314     0.11700
H2130       H  0.92522260  0.93039173  0.43214533     0.12800
H2131       H  0.96176728  0.92220833  0.57585791     0.11900
H2132       H  0.94099363  0.94409913  0.57646450     0.11100
H2133       H  0.91905441  0.95966816  0.55140311     0.16500
H2134       H  0.90926713  0.95100847  0.45922133     0.12400
H2135       H  0.96586396  0.89116060  0.45767137     0.15300
H2136       H  0.97583452  0.89965314  0.54984341     0.15100
C2137       C  0.94089097  0.04465012  0.55797522    -0.17800
C2138       C  0.95297998  0.05686578  0.55758194    -0.20000
C2139       C  0.95557994  0.06628486  0.53210682     0.20700
C2140       C  0.94606497  0.06328941  0.50664625    -0.02900
C2141       C  0.93386858  0.05095245  0.50703928    -0.06000
C2142       C  0.93123379  0.04164616  0.53288201     0.21000
C2143       C  0.92430814  0.04795825  0.48161754     0.19100
C2144       C  0.93010898  0.05462389  0.95146127    -0.17400
C2145       C  0.94265130  0.06643456  0.95237651    -0.19700
C2146       C  0.94868398  0.07265661  0.48085946     0.20600
C2147       C  0.96074607  0.08503243  0.48079755    -0.32700
C2148       C  0.97005578  0.08826252  0.50632227     0.01300
C2149       C  0.96745560  0.07873091  0.53177505    -0.24000
C2150       C  0.91903887  0.02946185  0.53315519    -0.28600
C2151       C  0.90956970  0.02631658  0.50781740     0.07000
C2152       C  0.91226610  0.03563398  0.48214762    -0.27300
H2153       H  0.93907206  0.03757266  0.57793388     0.11700
H2154       H  0.96025065  0.05900329  0.57726918     0.12800
H2155       H  0.92360854  0.05254959  0.93091142     0.11900
H2156       H  0.94555026  0.07323346  0.93252333     0.11100
H2157       H  0.96635680  0.08883168  0.96048710     0.16500
H2158       H  0.97470830  0.08098169  0.55145899     0.12400
H2159       H  0.91709357  0.02226495  0.55295357     0.15300
H2160       H  0.90494795  0.03333623  0.46255955     0.15100
C2161       C  0.07675152  0.04934367  0.55190318    -0.17800
C2162       C  0.06525435  0.06208517  0.55402881    -0.20000
C2163       C  0.05735588  0.06806869  0.52869187     0.20700
C2164       C  0.06097966  0.06102648  0.50095551    -0.02900
C2165       C  0.07256944  0.04813254  0.49881373    -0.06000
C2166       C  0.08052302  0.04235762  0.52441348     0.21000
C2167       C  0.07631175  0.04115027  0.47106884     0.19100
C2168       C  0.07443711  0.04914522  0.95357726    -0.17400
C2169       C  0.06274176  0.06175490  0.95491970    -0.19700
C2170       C  0.05313513  0.06694895  0.47533803     0.20600
C2171       C  0.04584610  0.08061393  0.98375395    -0.32700
C2172       C  0.03827234  0.08716046  0.50509802     0.01300
C2173       C  0.04598812  0.08102982  0.53059865    -0.24000
C2174       C  0.09225225  0.02981763  0.52211660    -0.28600
C2175       C  0.09631203  0.02292515  0.49454354     0.07000
C2176       C  0.08817487  0.02858669  0.46908883    -0.27300
H2177       H  0.08276874  0.04500831  0.57177044     0.11700
H2178       H  0.06261141  0.06732627  0.57548459     0.12800
H2179       H  0.07857101  0.04485298  0.93220911     0.11900
H2180       H  0.05806736  0.06693098  0.93455282     0.11100
H2181       H  0.04120022  0.08591938  0.96346288     0.16500
H2182       H  0.04326308  0.08642554  0.55191031     0.12400
H2183       H  0.09839878  0.02559053  0.54194234     0.15300
H2184       H  0.09115107  0.02333462  0.44777480     0.15100
C2185       C  0.05354795  0.92551957  0.54560602    -0.17800
C2186       C  0.06516405  0.93815841  0.54415157    -0.20000
C2187       C  0.07631974  0.93888154  0.52062914     0.20700
C2188       C  0.07577740  0.92678875  0.49828263    -0.02900
C2189       C  0.06407654  0.91402340  0.49977465    -0.06000
C2190       C  0.05292330  0.91340671  0.52357311     0.21000
C2191       C  0.06344538  0.90197688  0.47734644     0.19100
C2192       C  0.07725384  0.90508513  0.95962064    -0.17400
C2193       C  0.08958696  0.91708352  0.96001163    -0.19700
C2194       C  0.08685667  0.92750138  0.47437602     0.20600
C2195       C  0.09826347  0.94040706  0.47282102    -0.32700
C2196       C  0.09891017  0.95239075  0.49514751     0.01300
C2197       C  0.08798075  0.95151250  0.51903511    -0.24000
C2198       C  0.04120982  0.90080320  0.52474435    -0.28600
C2199       C  0.04028327  0.88901267  0.50215105     0.07000
C2200       C  0.05145697  0.88960397  0.47857598    -0.27300
H2201       H  0.04501831  0.92524244  0.56393246     0.11700
H2202       H  0.06540296  0.94739221  0.56140467     0.12800
H2203       H  0.07734934  0.89583954  0.94238502     0.11900
H2204       H  0.09896180  0.91687687  0.94305859     0.11100
H2205       H  0.11116410  0.94172994  0.96510033     0.16500
H2206       H  0.08841482  0.96081091  0.53619201     0.12400
H2207       H  0.03250080  0.90042846  0.54281778     0.15300
H2208       H  0.05080872  0.88042718  0.46123305     0.15100
C2209       C  0.16569266  0.42774839  0.89885333    -0.17800
C2210       C  0.16486328  0.41563248  0.87692451    -0.20000
C2211       C  0.14962654  0.41087926  0.86503989     0.20700
C2212       C  0.13505352  0.41829484  0.87552152    -0.02900
C2213       C  0.13589309  0.43046797  0.89773206    -0.06000
C2214       C  0.15129078  0.43528562  0.90934889     0.21000
C2215       C  0.12132074  0.43784558  0.90821590     0.19100
C2216       C  0.10606746  0.43296544  0.89657658    -0.17400
C2217       C  0.10523339  0.42095944  0.87450647    -0.19700
C2218       C  0.11963791  0.41359931  0.86373980     0.20600
C2219       C  0.11891844  0.40166800  0.84137009    -0.32700
C2220       C  0.13340126  0.39434376  0.83086147     0.01300
C2221       C  0.14868627  0.39889508  0.84280620    -0.24000
C2222       C  0.15199963  0.44754481  0.93121842    -0.28600
C2223       C  0.13748971  0.45499118  0.94176023     0.07000
C2224       C  0.12221599  0.44999700  0.93011789    -0.27300
H2225       H  0.17761271  0.43124643  0.90757181     0.11700
H2226       H  0.17615588  0.41002700  0.86916114     0.12800
H2227       H  0.09476428  0.43849100  0.90447235     0.11900
H2228       H  0.09331159  0.41745916  0.86579865     0.11100
H2229       H  0.10715649  0.39801001  0.83214147     0.16500
H2230       H  0.15980999  0.39311443  0.83462831     0.12400
H2231       H  0.16383567  0.45121984  0.94009639     0.15300
H2232       H  0.11095178  0.45560128  0.93804087     0.15100
C2233       C  0.16347050  0.41652139  0.63185123    -0.17800
C2234       C  0.16370202  0.42851858  0.60977116    -0.20000
C2235       C  0.14893296  0.43499638  0.59863937     0.20700
C2236       C  0.13377527  0.42935166  0.60993457    -0.02900
C2237       C  0.13353531  0.41730670  0.63230503    -0.06000
C2238       C  0.14847233  0.41083978  0.64322135     0.21000
C2239       C  0.11836020  0.41175489  0.64375415     0.19100
C2240       C  0.10360250  0.41825962  0.63268294    -0.17400
C2241       C  0.10384633  0.43014206  0.61041903    -0.19700
C2242       C  0.11885060  0.43575783  0.59893832     0.20600
C2243       C  0.11916441  0.44773397  0.57676865    -0.32700
C2244       C  0.13420080  0.45353579  0.56548354     0.01300
C2245       C  0.14905184  0.44705890  0.57651848    -0.24000
C2246       C  0.14813424  0.39882238  0.66532589    -0.28600
C2247       C  0.13309040  0.39331432  0.67673575     0.07000
C2248       C  0.11824160  0.39980579  0.66604703    -0.27300
H2249       H  0.17503208  0.41169328  0.64006216     0.11700
H2250       H  0.17544252  0.43272605  0.60138328     0.12800
H2251       H  0.09186432  0.41414157  0.64122145     0.11900
H2252       H  0.09228422  0.43497168  0.60221219     0.11100
H2253       H  0.10764340  0.45264539  0.56850690     0.16500
H2254       H  0.16070852  0.45143887  0.56801093     0.12400
H2255       H  0.15953910  0.39376535  0.67384828     0.15300
H2256       H  0.10667820  0.39549146  0.67506909     0.15100
C2257       C  0.04711922  0.20126899  0.00222790    -0.17800
C2258       C  0.06009989  0.21259642  0.00235080    -0.20000
C2259       C  0.07588693  0.20783742  0.01170542     0.20700
C2260       C  0.07932002  0.19189110  0.51644354    -0.02900
C2261       C  0.06620630  0.18049568  0.51644029    -0.06000
C2262       C  0.04965658  0.18503705  0.01177144     0.21000
C2263       C  0.06873340  0.16440998  0.52723644     0.19100
C2264       C  0.08431824  0.15988244  0.53790157    -0.17400
C2265       C  0.09739714  0.17109168  0.53736752    -0.19700
C2266       C  0.09506313  0.18710366  0.52656210     0.20600
C2267       C  0.10828075  0.19823076  0.52481454    -0.32700
C2268       C  0.10534732  0.21347423  0.01666143     0.01300
C2269       C  0.08925613  0.21866855  0.00951835    -0.24000
C2270       C  0.03695954  0.17329498  0.01021052    -0.28600
C2271       C  0.04045363  0.15746975  0.51437706     0.07000
C2272       C  0.05571115  0.15307158  0.52662817    -0.27300
H2273       H  0.03515692  0.20513560  0.99422934     0.11700
H2274       H  0.05789347  0.22496239  0.99435654     0.12800
H2275       H  0.08646549  0.14757361  0.54621624     0.11900
H2276       H  0.10938137  0.16719125  0.54520492     0.11100
H2277       H  0.12051467  0.19427055  0.53118189     0.16500
H2278       H  0.08722109  0.23096325  0.00102855     0.12400
H2279       H  0.02502180  0.17667811  0.00137591     0.15300
H2280       H  0.05755361  0.14067227  0.53481242     0.15100
C2281       C  0.11121465  0.27519726  0.85926811    -0.17800
C2282       C  0.11109971  0.26381036  0.88232429    -0.20000
C2283       C  0.12404408  0.26339191  0.90286470     0.20700
C2284       C  0.13734237  0.27438231  0.89992764    -0.02900
C2285       C  0.13744252  0.28591845  0.87674834    -0.06000
C2286       C  0.12427265  0.28634562  0.85639064     0.21000
C2287       C  0.15063336  0.29712006  0.87412841     0.19100
C2288       C  0.16366890  0.29654337  0.89441456    -0.17400
C2289       C  0.16361950  0.28500018  0.91724616    -0.19700
C2290       C  0.15047447  0.27393840  0.92025917     0.20600
C2291       C  0.15005788  0.26271351  0.94365527    -0.32700
C2292       C  0.13640848  0.25226965  0.94787131     0.01300
C2293       C  0.12370809  0.25236887  0.92656693    -0.24000
C2294       C  0.12434877  0.29800227  0.83368563    -0.28600
C2295       C  0.13736269  0.30923598  0.83127812     0.07000
C2296       C  0.15048212  0.30875435  0.85138674    -0.27300
H2297       H  0.10103133  0.27536324  0.84381249     0.11700
H2298       H  0.10079397  0.25542744  0.88425618     0.12800
H2299       H  0.17387649  0.30505820  0.89268145     0.11900
H2300       H  0.17377915  0.28484542  0.93275071     0.11100
H2301       H  0.16011158  0.26251738  0.95941011     0.16500
H2302       H  0.11342942  0.24405213  0.92788415     0.12400
H2303       H  0.11424732  0.29851873  0.81805398     0.15300
H2304       H  0.16047318  0.31751442  0.84931053     0.15100
C2305       C  0.11734975  0.27216438  0.65084806    -0.17800
C2306       C  0.11745759  0.26092238  0.62741229    -0.20000
C2307       C  0.13005122  0.26131433  0.60628411     0.20700
C2308       C  0.14293085  0.27288925  0.60934551    -0.02900
C2309       C  0.14282691  0.28423528  0.63301204    -0.06000
C2310       C  0.12983401  0.28400410  0.65360532     0.21000
C2311       C  0.15543055  0.29613901  0.63549931     0.19100
C2312       C  0.16826320  0.29626390  0.61483967    -0.17400
C2313       C  0.16832250  0.28508735  0.59133461    -0.19700
C2314       C  0.15557450  0.27356397  0.58812630     0.20600
C2315       C  0.15483816  0.26324186  0.56335856    -0.32700
C2316       C  0.14163637  0.25225501  0.55942418     0.01300
C2317       C  0.12959423  0.25090237  0.58144615    -0.24000
C2318       C  0.12933324  0.29587093  0.67611857    -0.28600
C2319       C  0.14160028  0.30800398  0.67822146     0.07000
C2320       C  0.15474072  0.30794541  0.65813338    -0.27300
H2321       H  0.10732189  0.27178747  0.66654116     0.11700
H2322       H  0.10748632  0.25214063  0.62546534     0.12800
H2323       H  0.17808245  0.30523387  0.61650828     0.11900
H2324       H  0.17816210  0.28569532  0.57528467     0.11100
H2325       H  0.16415962  0.26424182  0.54637250     0.16500
H2326       H  0.11933784  0.24255204  0.57827230     0.12400
H2327       H  0.11922436  0.29594519  0.69168685     0.15300
H2328       H  0.16422235  0.31727932  0.65989504     0.15100
C2329       C  0.16121472  0.56210064  0.63506330    -0.17800
C2330       C  0.16171853  0.55006098  0.61296585    -0.20000
C2331       C  0.14713233  0.54288779  0.60240490     0.20700
C2332       C  0.13187693  0.54798407  0.61411113    -0.02900
C2333       C  0.13135879  0.56017084  0.63636093    -0.06000
C2334       C  0.14611551  0.56720812  0.64696573     0.21000
C2335       C  0.11607773  0.56529369  0.64799256     0.19100
C2336       C  0.10149670  0.55820180  0.63729566    -0.17400
C2337       C  0.10201926  0.54610757  0.61532868    -0.19700
C2338       C  0.11712930  0.54091042  0.60361398     0.20600
C2339       C  0.11771931  0.52878924  0.58156830    -0.32700
C2340       C  0.13286390  0.52359764  0.56974069     0.01300
C2341       C  0.14753135  0.53073582  0.58034627    -0.24000
C2342       C  0.14548994  0.57921902  0.66924878    -0.28600
C2343       C  0.13030079  0.58438492  0.68079335     0.07000
C2344       C  0.11565389  0.57741048  0.67008828    -0.27300
H2345       H  0.17265001  0.56741357  0.64286768     0.11700
H2346       H  0.17353596  0.54633305  0.60417075     0.12800
H2347       H  0.08967063  0.56199650  0.64595811     0.11900
H2348       H  0.09058219  0.54081468  0.60748562     0.11100
H2349       H  0.10633964  0.52341749  0.57360242     0.16500
H2350       H  0.15927692  0.52690001  0.57136814     0.12400
H2351       H  0.15676270  0.58466691  0.67754915     0.15300
H2352       H  0.10396743  0.58144515  0.67905238     0.15100
C2353       C  0.10595559  0.55201758  0.90920750    -0.17800
C2354       C  0.10492845  0.56385903  0.88696666    -0.20000
C2355       C  0.11909813  0.56878978  0.87175964     0.20700
C2356       C  0.13449626  0.56183573  0.87917998    -0.02900
C2357       C  0.13553500  0.54994359  0.90169875    -0.06000
C2358       C  0.12117274  0.54495062  0.91660323     0.21000
C2359       C  0.15090923  0.54296110  0.90911060     0.19100
C2360       C  0.16510791  0.54803694  0.89410615    -0.17400
C2361       C  0.16407889  0.55979678  0.87170001    -0.19700
C2362       C  0.14884412  0.56670380  0.86401079     0.20600
C2363       C  0.14768348  0.57840485  0.84146209    -0.32700
C2364       C  0.13240779  0.58532930  0.83417212     0.01300
C2365       C  0.11816894  0.58055075  0.84927943    -0.24000
C2366       C  0.12223097  0.53283622  0.93841194    -0.28600
C2367       C  0.13745534  0.52559183  0.94561076     0.07000
C2368       C  0.15178230  0.53087933  0.93111470    -0.27300
H2369       H  0.09482816  0.54832264  0.92053281     0.11700
H2370       H  0.09304070  0.56910783  0.88156823     0.12800
H2371       H  0.17700246  0.54282503  0.89956442     0.11900
H2372       H  0.17519902  0.56345893  0.86032130     0.11100
H2373       H  0.15861631  0.58226709  0.82968298     0.16500
H2374       H  0.10643588  0.58603583  0.84348042     0.12400
H2375       H  0.11111908  0.52895662  0.94960929     0.15300
H2376       H  0.16356593  0.52540651  0.93657126     0.15100
C2377       C  0.06247001  0.76715870  0.52457346    -0.17800
C2378       C  0.04932725  0.77824697  0.52592438    -0.20000
C2379       C  0.05082638  0.79404537  0.51382297     0.20700
C2380       C  0.06569715  0.79862997  0.49990596    -0.02900
C2381       C  0.07909756  0.78754891  0.49912597    -0.06000
C2382       C  0.07743665  0.77178266  0.51157602     0.21000
C2383       C  0.09422422  0.79234866  0.48641348     0.19100
C2384       C  0.09557417  0.80801917  0.47365930    -0.17400
C2385       C  0.08217832  0.81888044  0.47384074    -0.19700
C2386       C  0.06725303  0.81435407  0.48711813     0.20600
C2387       C  0.05388725  0.82528856  0.48801167    -0.32700
C2388       C  0.03920163  0.82089292  0.50230017     0.01300
C2389       C  0.03775428  0.80534363  0.51540501    -0.24000
C2390       C  0.09092506  0.76108295  0.51177691    -0.28600
C2391       C  0.10644223  0.76614344  0.50123514     0.07000
C2392       C  0.10785509  0.78163711  0.48767160    -0.27300
H2393       H  0.06104091  0.75506534  0.53426662     0.11700
H2394       H  0.03799969  0.77447597  0.53650662     0.12800
H2395       H  0.10703863  0.81193195  0.46373781     0.11900
H2396       H  0.08356497  0.83092207  0.46392963     0.11100
H2397       H  0.05497650  0.83737579  0.47809235     0.16500
H2398       H  0.02637427  0.80197544  0.52628094     0.12400
H2399       H  0.08942739  0.74894064  0.52122175     0.15300
H2400       H  0.11967868  0.78569845  0.47943488     0.15100
C2401       C  0.11036182  0.69069047  0.58660590    -0.17800
C2402       C  0.10863969  0.67981748  0.61020598    -0.20000
C2403       C  0.11922426  0.68087537  0.63457682     0.20700
C2404       C  0.13152552  0.69313955  0.63540571    -0.02900
C2405       C  0.13315831  0.70419277  0.61170648    -0.06000
C2406       C  0.12262910  0.70282475  0.58713752     0.21000
C2407       C  0.14543709  0.71645774  0.61244843     0.19100
C2408       C  0.15582758  0.71769368  0.63712040    -0.17400
C2409       C  0.15436439  0.70658143  0.66047254    -0.19700
C2410       C  0.14238069  0.69417281  0.65964747     0.20600
C2411       C  0.14125845  0.68257434  0.68232402    -0.32700
C2412       C  0.12914201  0.67025807  0.68142892     0.01300
C2413       C  0.11794036  0.66968700  0.65786091    -0.24000
C2414       C  0.12460740  0.71351286  0.56335989    -0.28600
C2415       C  0.13696462  0.72567439  0.56344705     0.07000
C2416       C  0.14722742  0.72717178  0.58844104    -0.27300
H2417       H  0.10216360  0.68954441  0.56784386     0.11700
H2418       H  0.09916314  0.67045588  0.60923880     0.12800
H2419       H  0.16525043  0.72710621  0.63816619     0.11900
H2420       H  0.16269516  0.70760608  0.67906718     0.11100
H2421       H  0.14992414  0.68293763  0.70052578     0.16500
H2422       H  0.10857781  0.66018499  0.65732447     0.12400
H2423       H  0.11647185  0.71239294  0.54447308     0.15300
H2424       H  0.15660222  0.73652001  0.58975583     0.15100
C2425       C  0.10415782  0.70625506  0.90612979    -0.17800
C2426       C  0.10346053  0.69442316  0.88371085    -0.20000
C2427       C  0.11789918  0.68900544  0.86982544     0.20700
C2428       C  0.13319013  0.69585830  0.87818053    -0.02900
C2429       C  0.13389565  0.70782347  0.90086515    -0.06000
C2430       C  0.11930772  0.71289169  0.91509596     0.21000
C2431       C  0.14923125  0.71423485  0.91005823     0.19100
C2432       C  0.16364535  0.70901909  0.89576598    -0.17400
C2433       C  0.16293083  0.69729293  0.87309027    -0.19700
C2434       C  0.14780140  0.69046910  0.86438945     0.20600
C2435       C  0.14701785  0.67819837  0.84249435    -0.32700
C2436       C  0.13183464  0.67119016  0.83446122     0.01300
C2437       C  0.11733416  0.67670135  0.84805249    -0.24000
C2438       C  0.12019195  0.72386973  0.93899379    -0.28600
C2439       C  0.13545694  0.72966648  0.94917382     0.07000
C2440       C  0.14991738  0.72509994  0.93427496    -0.27300
H2441       H  0.09285251  0.70999660  0.91685033     0.11700
H2442       H  0.09162607  0.68933723  0.87750501     0.12800
H2443       H  0.17551912  0.71381512  0.90245347     0.11900
H2444       H  0.17426102  0.69335529  0.86268399     0.11100
H2445       H  0.15817972  0.67395437  0.83185967     0.16500
H2446       H  0.10564565  0.67132790  0.84167307     0.12400
H2447       H  0.10910746  0.72706155  0.95100312     0.15300
H2448       H  0.16172239  0.72924900  0.94261475     0.15100
C2449       C  0.43829909  0.14009560  0.60343036    -0.17800
C2450       C  0.42618598  0.13973731  0.62529655    -0.20000
C2451       C  0.42484498  0.12616899  0.64423455     0.20700
C2452       C  0.43597549  0.11291749  0.64142697    -0.02900
C2453       C  0.44810160  0.11320745  0.61913936    -0.06000
C2454       C  0.44920250  0.12683371  0.59997831     0.21000
C2455       C  0.45893212  0.09975783  0.61573873     0.19100
C2456       C  0.45787832  0.08639392  0.63523126    -0.17400
C2457       C  0.44596358  0.08617135  0.65749604    -0.19700
C2458       C  0.43483263  0.09927167  0.66057931     0.20600
C2459       C  0.42246080  0.09890506  0.68218863    -0.32700
C2460       C  0.41117445  0.11193648  0.68459650     0.01300
C2461       C  0.41247209  0.12554244  0.66571721    -0.24000
C2462       C  0.46098415  0.12683872  0.57738354    -0.28600
C2463       C  0.47144720  0.11323381  0.57319373     0.07000
C2464       C  0.47044507  0.09980243  0.59265662    -0.27300
H2465       H  0.43899945  0.15066480  0.58895180     0.11700
H2466       H  0.41778496  0.15003599  0.62726558     0.12800
H2467       H  0.46617893  0.07602621  0.63308273     0.11900
H2468       H  0.44532258  0.07564499  0.67208128     0.11100
H2469       H  0.42142522  0.08844645  0.69687985     0.16500
H2470       H  0.40377824  0.13560256  0.66780133     0.12400
H2471       H  0.46170309  0.13725525  0.56253255     0.15300
H2472       H  0.47864254  0.08939178  0.58984905     0.15100
C2473       C  0.43966315  0.14185917  0.91035475    -0.17800
C2474       C  0.42734765  0.14225611  0.88879674    -0.20000
C2475       C  0.42233517  0.12772898  0.87466833     0.20700
C2476       C  0.42969004  0.11260199  0.88255358    -0.02900
C2477       C  0.44208432  0.11220069  0.90439867    -0.06000
C2478       C  0.44714518  0.12692432  0.91819439     0.21000
C2479       C  0.44951360  0.09711276  0.91220029     0.19100
C2480       C  0.44440538  0.08255658  0.89822034    -0.17400
C2481       C  0.43217704  0.08295849  0.87645383    -0.19700
C2482       C  0.42480905  0.09791364  0.86836314     0.20600
C2483       C  0.41281382  0.09849886  0.84608487    -0.32700
C2484       C  0.40562795  0.11354895  0.83802012     0.01300
C2485       C  0.41027426  0.12808323  0.85251205    -0.24000
C2486       C  0.45968636  0.12650613  0.93942094    -0.28600
C2487       C  0.46726909  0.11155810  0.94720973     0.07000
C2488       C  0.46201115  0.09687655  0.93362657    -0.27300
H2489       H  0.44340091  0.15326327  0.92079968     0.11700
H2490       H  0.42182685  0.15395493  0.88300918     0.12800
H2491       H  0.44995806  0.07086592  0.90396561     0.11900
H2492       H  0.42854578  0.07157514  0.86582021     0.11100
H2493       H  0.40915885  0.08732877  0.83473575     0.16500
H2494       H  0.40469884  0.13966022  0.84607033     0.12400
H2495       H  0.46356350  0.13788125  0.94982682     0.15300
H2496       H  0.46775661  0.08528622  0.93945848     0.15100
C2497       C  0.19182808  0.06946517  0.54551731    -0.17800
C2498       C  0.18085399  0.05632656  0.54417405    -0.20000
C2499       C  0.17812145  0.04808451  0.51746446     0.20700
C2500       C  0.18621818  0.05329785  0.49163051    -0.02900
C2501       C  0.19743565  0.06652998  0.49303260    -0.06000
C2502       C  0.20031717  0.07446518  0.52021822     0.21000
C2503       C  0.20604112  0.07155617  0.46753699     0.19100
C2504       C  0.20285715  0.06355107  0.44062896    -0.17400
C2505       C  0.19372808  0.05032755  0.94573537    -0.19700
C2506       C  0.18333704  0.04511016  0.46464603     0.20600
C2507       C  0.17243513  0.03162008  0.46383575    -0.32700
C2508       C  0.16463934  0.02618509  0.48982994     0.01300
C2509       C  0.16752381  0.03460808  0.51638957    -0.24000
C2510       C  0.21207014  0.08689774  0.52202588    -0.28600
C2511       C  0.22143975  0.09133512  0.49733587     0.07000
C2512       C  0.21802060  0.08407755  0.46980212    -0.27300
H2513       H  0.19392981  0.07550856  0.56650216     0.11700
H2514       H  0.17463274  0.05249022  0.56412628     0.12800
H2515       H  0.21052874  0.06695641  0.92460881     0.11900
H2516       H  0.19136923  0.04361872  0.92550600     0.11100
H2517       H  0.17322425  0.02489895  0.95322244     0.16500
H2518       H  0.16143809  0.03071784  0.53645768     0.12400
H2519       H  0.21434706  0.09282621  0.54308471     0.15300
H2520       H  0.22513845  0.08762198  0.45065237     0.15100
C2521       C  0.20575758  0.20193332  0.52658549    -0.17800
C2522       C  0.21792858  0.18977995  0.52584695    -0.20000
C2523       C  0.21427397  0.17392526  0.51545292     0.20700
C2524       C  0.19823991  0.17028270  0.50541740    -0.02900
C2525       C  0.18590520  0.18252472  0.50636995    -0.06000
C2526       C  0.18971242  0.19841854  0.51704208     0.21000
C2527       C  0.16982293  0.17891011  0.49644998     0.19100
C2528       C  0.16627011  0.16312604  0.48554055    -0.17400
C2529       C  0.17850640  0.15098358  0.48461798    -0.19700
C2530       C  0.19451966  0.15440804  0.49458002     0.20600
C2531       C  0.20680724  0.14220373  0.49437503    -0.32700
C2532       C  0.22266092  0.14565371  0.50524693     0.01300
C2533       C  0.22633507  0.16160614  0.51531850    -0.24000
C2534       C  0.17750035  0.21060889  0.51740851    -0.28600
C2535       C  0.16157517  0.20709859  0.50732025     0.07000
C2536       C  0.15771464  0.19125615  0.49706710    -0.27300
H2537       H  0.20889301  0.21408918  0.53466734     0.11700
H2538       H  0.23020613  0.19276982  0.53351528     0.12800
H2539       H  0.15401900  0.16017121  0.47769584     0.11900
H2540       H  0.17542476  0.13888388  0.47620821     0.11100
H2541       H  0.20387797  0.12989261  0.48678292     0.16500
H2542       H  0.23861056  0.16439840  0.52327729     0.12400
H2543       H  0.18046313  0.22298352  0.52466303     0.15300
H2544       H  0.14546511  0.18876173  0.48865039     0.15100
C2545       C  0.29700855  0.08538364  0.63617737    -0.17800
C2546       C  0.28557134  0.08573859  0.61306843    -0.20000
C2547       C  0.28280768  0.10029512  0.59712368     0.20700
C2548       C  0.29170523  0.11460636  0.60448870    -0.02900
C2549       C  0.30329491  0.11424912  0.62775365    -0.06000
C2550       C  0.30592657  0.09956398  0.64371671     0.21000
C2551       C  0.31226319  0.12857895  0.63498203     0.19100
C2552       C  0.30956244  0.14308883  0.61895432    -0.17400
C2553       C  0.29812191  0.14340981  0.59586839    -0.19700
C2554       C  0.28916017  0.12923520  0.58843908     0.20600
C2555       C  0.27780745  0.12943518  0.56509749    -0.32700
C2556       C  0.26865849  0.11529527  0.55756609     0.01300
C2557       C  0.27143234  0.10069199  0.57377900    -0.24000
C2558       C  0.31739627  0.09935782  0.66693143    -0.28600
C2559       C  0.32628305  0.11361676  0.67418381     0.07000
C2560       C  0.32373693  0.12814815  0.65812975    -0.27300
H2561       H  0.29888710  0.07400493  0.64814459     0.11700
H2562       H  0.27887283  0.07460625  0.60767041     0.12800
H2563       H  0.31632564  0.15419672  0.62424477     0.11900
H2564       H  0.29629922  0.15475787  0.58378072     0.11100
H2565       H  0.27611608  0.14065019  0.55252801     0.16500
H2566       H  0.26528975  0.08936959  0.56811030     0.12400
H2567       H  0.31942149  0.08817831  0.67944282     0.15300
H2568       H  0.33061965  0.13911856  0.66391103     0.15100
C2569       C  0.29830469  0.14972397  0.91232363    -0.17800
C2570       C  0.30926391  0.14907910  0.88861912    -0.20000
C2571       C  0.30881976  0.13584698  0.86874302     0.20700
C2572       C  0.29683163  0.12341579  0.87215177    -0.02900
C2573       C  0.28568487  0.12412428  0.89599122    -0.06000
C2574       C  0.28667744  0.13717888  0.91646834     0.21000
C2575       C  0.27407213  0.11139259  0.90010110     0.19100
C2576       C  0.27344351  0.09832749  0.87985215    -0.17400
C2577       C  0.28451085  0.09761092  0.85624534    -0.19700
C2578       C  0.29639287  0.10995966  0.85243374     0.20600
C2579       C  0.30818776  0.10883390  0.82990411    -0.32700
C2580       C  0.32043900  0.12092702  0.82707442     0.01300
C2581       C  0.32050244  0.13454003  0.84615117    -0.24000
C2582       C  0.27665257  0.13698730  0.94157352    -0.28600
C2583       C  0.26565198  0.12394653  0.94649450     0.07000
C2584       C  0.26394852  0.11150305  0.92522951    -0.27300
H2585       H  0.29917987  0.15984589  0.92782214     0.11700
H2586       H  0.31834907  0.15873869  0.88623418     0.12800
H2587       H  0.26464109  0.08844730  0.88267202     0.11900
H2588       H  0.28398731  0.08721410  0.84129402     0.11100
H2589       H  0.30822351  0.09831729  0.81516897     0.16500
H2590       H  0.32998639  0.14383133  0.84386122     0.12400
H2591       H  0.27802693  0.14649643  0.95820241     0.15300
H2592       H  0.25565420  0.10131863  0.92935620     0.15100
C2593       C  0.57406533  0.14000774  0.92340011    -0.17800
C2594       C  0.58606982  0.14115371  0.90138515    -0.20000
C2595       C  0.58612298  0.13008518  0.87759138     0.20700
C2596       C  0.57397406  0.11769077  0.87604912    -0.02900
C2597       C  0.56195290  0.11642580  0.89844764    -0.06000
C2598       C  0.56195481  0.12770452  0.92213233     0.21000
C2599       C  0.54996342  0.10386384  0.89715163     0.19100
C2600       C  0.54993893  0.09288367  0.87323407    -0.17400
C2601       C  0.56174771  0.09422615  0.85092766    -0.19700
C2602       C  0.57386616  0.10651046  0.85220516     0.20600
C2603       C  0.58593263  0.10773351  0.83018294    -0.32700
C2604       C  0.59811477  0.12000089  0.83161321     0.01300
C2605       C  0.59811999  0.13114603  0.85538248    -0.24000
C2606       C  0.54985324  0.12648057  0.94410414    -0.28600
C2607       C  0.53797634  0.11388692  0.94313856     0.07000
C2608       C  0.53819801  0.10253412  0.91972582    -0.27300
H2609       H  0.57427889  0.14873392  0.94148067     0.11700
H2610       H  0.59530700  0.15072687  0.90295008     0.12800
H2611       H  0.54077471  0.08323650  0.87177371     0.11900
H2612       H  0.56145484  0.08558087  0.83272727     0.11100
H2613       H  0.58598748  0.09905624  0.81200295     0.16500
H2614       H  0.60750885  0.14060181  0.85652236     0.12400
H2615       H  0.54980046  0.13519627  0.96222852     0.15300
H2616       H  0.52899594  0.09289111  0.91877912     0.15100
C2617       C  0.57795674  0.14557184  0.62725821    -0.17800
C2618       C  0.56620356  0.14474618  0.60483053    -0.20000
C2619       C  0.55945393  0.12955887  0.59648308     0.20700
C2620       C  0.56455471  0.11502335  0.61079890    -0.02900
C2621       C  0.57636514  0.11585875  0.63354054    -0.06000
C2622       C  0.58311154  0.13122585  0.64169066     0.21000
C2623       C  0.58140602  0.10135861  0.64812399     0.19100
C2624       C  0.57461670  0.08617235  0.63974473    -0.17400
C2625       C  0.56293565  0.08534229  0.61706477    -0.19700
C2626       C  0.55780511  0.09969556  0.60249875     0.20600
C2627       C  0.54590798  0.09905055  0.58005126    -0.32700
C2628       C  0.54058326  0.11357030  0.56607527     0.01300
C2629       C  0.54755396  0.12872608  0.57426411    -0.24000
C2630       C  0.59492884  0.13198378  0.66408545    -0.28600
C2631       C  0.59997816  0.11762907  0.67852375     0.07000
C2632       C  0.59317762  0.10235534  0.67072227    -0.27300
H2633       H  0.58300961  0.15743995  0.63333804     0.11700
H2634       H  0.56236792  0.15600248  0.59403320     0.12800
H2635       H  0.57835437  0.07493573  0.65071132     0.11900
H2636       H  0.55786297  0.07348084  0.61099892     0.11100
H2637       H  0.54059083  0.08730667  0.57388303     0.16500
H2638       H  0.54360365  0.13997290  0.56354158     0.12400
H2639       H  0.60023604  0.14371415  0.67041163     0.15300
H2640       H  0.59716900  0.09132958  0.68211624     0.15100
C2641       C  0.81561062  0.07537420  0.95955356    -0.17800
C2642       C  0.82578007  0.06156949  0.95801437    -0.20000
C2643       C  0.82704152  0.05083681  0.98207688     0.20700
C2644       C  0.81964156  0.05307468  0.51007210    -0.02900
C2645       C  0.80884045  0.06671655  0.51046993    -0.06000
C2646       C  0.80640794  0.07854172  0.98505314     0.21000
C2647       C  0.79936827  0.07017197  0.53585634     0.19100
C2648       C  0.80105252  0.06005782  0.56076339    -0.17400
C2649       C  0.81187594  0.04660586  0.56045301    -0.19700
C2650       C  0.82117740  0.04295506  0.53518175     0.20600
C2651       C  0.83199463  0.02941249  0.53453716    -0.32700
C2652       C  0.84110862  0.02574788  0.50893008     0.01300
C2653       C  0.83720149  0.03696814  0.98054063    -0.24000
C2654       C  0.79542812  0.09171732  0.98590783    -0.28600
C2655       C  0.78514922  0.09418595  0.01038454     0.07000
C2656       C  0.78803079  0.08332060  0.53545040    -0.27300
H2657       H  0.81470662  0.08341458  0.94057755     0.11700
H2658       H  0.83262679  0.05925780  0.93795147     0.12800
H2659       H  0.79389232  0.06246842  0.58042774     0.11900
H2660       H  0.81288644  0.03898006  0.57994730     0.11100
H2661       H  0.83330250  0.02172908  0.55391637     0.16500
H2662       H  0.84414438  0.03462239  0.96057881     0.12400
H2663       H  0.79418594  0.09960781  0.96675230     0.15300
H2664       H  0.78024958  0.08565206  0.55439233     0.15100
C2665       C  0.72824885  0.09603480  0.88431579    -0.17800
C2666       C  0.71719731  0.09653967  0.86070688    -0.20000
C2667       C  0.70611797  0.10967217  0.85790238     0.20700
C2668       C  0.70623939  0.12249958  0.87895274    -0.02900
C2669       C  0.71746465  0.12202847  0.90265218    -0.06000
C2670       C  0.72843792  0.10869263  0.90541640     0.21000
C2671       C  0.71758561  0.13480453  0.92370154     0.19100
C2672       C  0.70650478  0.14795919  0.92090287    -0.17400
C2673       C  0.69527789  0.14838386  0.89752153    -0.19700
C2674       C  0.69503099  0.13570735  0.87650648     0.20600
C2675       C  0.68368557  0.13590233  0.85324495    -0.32700
C2676       C  0.68353151  0.12313823  0.83241185     0.01300
C2677       C  0.69478552  0.11012222  0.83463923    -0.24000
C2678       C  0.73929377  0.10807793  0.92938260    -0.28600
C2679       C  0.73943354  0.12067164  0.95087235     0.07000
C2680       C  0.72861866  0.13410014  0.94741124    -0.27300
H2681       H  0.73661099  0.08569462  0.88613907     0.11700
H2682       H  0.71723858  0.08660202  0.84475412     0.12800
H2683       H  0.70643500  0.15785793  0.93693196     0.11900
H2684       H  0.68675226  0.15860012  0.89592498     0.11100
H2685       H  0.67487628  0.14587386  0.85134981     0.16500
H2686       H  0.69447742  0.10026326  0.81850962     0.12400
H2687       H  0.74732051  0.09758088  0.93084089     0.15300
H2688       H  0.72860040  0.14388525  0.96369741     0.15100
C2689       C  0.70360909  0.15144972  0.62360591    -0.17800
C2690       C  0.71513781  0.15111789  0.60069828    -0.20000
C2691       C  0.72399064  0.13669095  0.59444552     0.20700
C2692       C  0.72156944  0.12258678  0.61202516    -0.02900
C2693       C  0.70986799  0.12290368  0.63511498    -0.06000
C2694       C  0.70068441  0.13734826  0.64064913     0.21000
C2695       C  0.70704640  0.10864189  0.65210939     0.19100
C2696       C  0.71619494  0.09434156  0.64629070    -0.17400
C2697       C  0.72772699  0.09400800  0.62335663    -0.19700
C2698       C  0.73037570  0.10798390  0.60583061     0.20600
C2699       C  0.74107251  0.10740959  0.58142898    -0.32700
C2700       C  0.74289401  0.12119650  0.56308741     0.01300
C2701       C  0.73463213  0.13588755  0.57011004    -0.24000
C2702       C  0.68854216  0.13732854  0.66272249    -0.28600
C2703       C  0.68550661  0.12307676  0.67934320     0.07000
C2704       C  0.69492395  0.10884931  0.67421286    -0.27300
H2705       H  0.69676288  0.16266826  0.62765418     0.11700
H2706       H  0.71689820  0.16207086  0.58748263     0.12800
H2707       H  0.71423385  0.08330439  0.65918309     0.11900
H2708       H  0.73436764  0.08270457  0.61898521     0.11100
H2709       H  0.74719057  0.09599641  0.57564367     0.16500
H2710       H  0.73585554  0.14642762  0.55563524     0.12400
H2711       H  0.68132827  0.14831392  0.66686193     0.15300
H2712       H  0.69259398  0.09789882  0.68717201     0.15100
C2713       C  0.45460920  0.83654662  0.87992282    -0.17800
C2714       C  0.44312317  0.83627148  0.85686992    -0.20000
C2715       C  0.43350509  0.85019659  0.85065353     0.20700
C2716       C  0.43557459  0.86459323  0.86776022    -0.02900
C2717       C  0.44724310  0.86489643  0.89093014    -0.06000
C2718       C  0.45673984  0.85077341  0.89711552     0.21000
C2719       C  0.44935989  0.87930829  0.90793485     0.19100
C2720       C  0.43973029  0.89323290  0.90174964    -0.17400
C2721       C  0.42807771  0.89289162  0.87898507    -0.19700
C2722       C  0.42589724  0.87864879  0.86188546     0.20600
C2723       C  0.41408547  0.87814374  0.83926514    -0.32700
C2724       C  0.41189981  0.86382259  0.82234714     0.01300
C2725       C  0.42171181  0.84993063  0.82793221    -0.24000
C2726       C  0.46822063  0.85112930  0.92031299    -0.28600
C2727       C  0.47055111  0.86550336  0.93720011     0.07000
C2728       C  0.46105972  0.87955311  0.93079563    -0.27300
H2729       H  0.46183036  0.82560785  0.88431996     0.11700
H2730       H  0.44169936  0.82512189  0.84399247     0.12800
H2731       H  0.44117282  0.90439059  0.91459865     0.11900
H2732       H  0.42074622  0.90377955  0.87477290     0.11100
H2733       H  0.40640993  0.88879447  0.83497218     0.16500
H2734       H  0.41988282  0.83886048  0.81497087     0.12400
H2735       H  0.47553135  0.84026911  0.92492099     0.15300
H2736       H  0.46269422  0.89065842  0.94373989     0.15100
C2737       C  0.44004751  0.89696255  0.60092909    -0.17800
C2738       C  0.42737731  0.89622175  0.62174257    -0.20000
C2739       C  0.42297678  0.88114726  0.63454591     0.20700
C2740       C  0.43138218  0.86665452  0.62622073    -0.02900
C2741       C  0.44414907  0.86740897  0.60523639    -0.06000
C2742       C  0.44852164  0.88263904  0.59257041     0.21000
C2743       C  0.45256677  0.85292422  0.59703144     0.19100
C2744       C  0.44819310  0.83785149  0.60986243    -0.17400
C2745       C  0.43558486  0.83710476  0.63072040    -0.19700
C2746       C  0.42713693  0.85141374  0.63905172     0.20600
C2747       C  0.41468425  0.85078937  0.66029692    -0.32700
C2748       C  0.40647120  0.86518272  0.66882989     0.01300
C2749       C  0.41050155  0.88030228  0.65582194    -0.24000
C2750       C  0.46127263  0.88326413  0.57176623    -0.28600
C2751       C  0.46965879  0.86884009  0.56332888     0.07000
C2752       C  0.46521160  0.85373274  0.57613389    -0.27300
H2753       H  0.44324133  0.90875244  0.59140112     0.11700
H2754       H  0.42106377  0.90745243  0.62791565     0.12800
H2755       H  0.45455564  0.82662954  0.60380322     0.11900
H2756       H  0.43247331  0.82533359  0.64041161     0.11100
H2757       H  0.41152908  0.83919615  0.67065535     0.16500
H2758       H  0.40414823  0.89137912  0.66277213     0.12400
H2759       H  0.46456512  0.89496758  0.56198366     0.15300
H2760       H  0.47161840  0.84255925  0.56989584     0.15100
C2761       C  0.19226164  0.93043141  0.54778649    -0.17800
C2762       C  0.20418593  0.91800664  0.54865042    -0.20000
C2763       C  0.21016283  0.91105209  0.52243834     0.20700
C2764       C  0.20402897  0.91670146  0.49508119    -0.02900
C2765       C  0.19197553  0.92920956  0.49420796    -0.06000
C2766       C  0.18610341  0.93611428  0.52069386     0.21000
C2767       C  0.18868562  0.93542128  0.97556335     0.19100
C2768       C  0.19610512  0.93056322  0.94906454    -0.17400
C2769       C  0.20725442  0.91748810  0.94862765    -0.19700
C2770       C  0.21124958  0.90911760  0.97471652     0.20600
C2771       C  0.22263889  0.89622318  0.97438595    -0.32700
C2772       C  0.22803829  0.89169151  0.49668306     0.01300
C2773       C  0.22210951  0.89853619  0.52306631    -0.24000
C2774       C  0.17416407  0.94856012  0.51964256    -0.28600
C2775       C  0.16794693  0.95423535  0.49244696     0.07000
C2776       C  0.17763419  0.94865700  0.97612869    -0.27300
H2777       H  0.18784737  0.93559943  0.56833854     0.11700
H2778       H  0.20872922  0.91383165  0.56983475     0.12800
H2779       H  0.19332819  0.93691922  0.92866541     0.11900
H2780       H  0.21287797  0.91401605  0.92788630     0.11100
H2781       H  0.22773603  0.89250639  0.95339022     0.16500
H2782       H  0.22688807  0.89423488  0.54401226     0.12400
H2783       H  0.16968633  0.95378957  0.54011059     0.15300
H2784       H  0.17484656  0.95512591  0.95583552     0.15100
C2785       C  0.18223854  0.79855776  0.95124982    -0.17800
C2786       C  0.19435207  0.81078004  0.95014471    -0.20000
C2787       C  0.20172763  0.81962396  0.47565856     0.20700
C2788       C  0.19660414  0.81373654  0.50334095    -0.02900
C2789       C  0.18485029  0.80094760  0.50493246    -0.06000
C2790       C  0.17829068  0.79394938  0.47887918     0.21000
C2791       C  0.17984800  0.79502590  0.53262318     0.19100
C2792       C  0.18646013  0.80194463  0.55845255    -0.17400
C2793       C  0.19820958  0.81447021  0.55687610    -0.19700
C2794       C  0.20347516  0.82037401  0.52945150     0.20600
C2795       C  0.21586624  0.83238286  0.52769254    -0.32700
C2796       C  0.22158939  0.83772273  0.50016943     0.01300
C2797       C  0.21419828  0.82845714  0.97524033    -0.24000
C2798       C  0.16709894  0.78071568  0.48074881    -0.28600
C2799       C  0.16227655  0.77450835  0.50838673     0.07000
C2800       C  0.16844893  0.78215944  0.53413894    -0.27300
H2801       H  0.17699505  0.79400947  0.93082556     0.11700
H2802       H  0.19822067  0.81541484  0.92886960     0.12800
H2803       H  0.18271469  0.79749190  0.57992270     0.11900
H2804       H  0.20331798  0.81940795  0.57712175     0.11100
H2805       H  0.22159452  0.83696269  0.54768540     0.16500
H2806       H  0.21806019  0.83324082  0.95406271     0.12400
H2807       H  0.16249320  0.77505525  0.46074136     0.15300
H2808       H  0.16439642  0.77817545  0.55569462     0.15100
C2809       C  0.28605903  0.83041129  0.88794584    -0.17800
C2810       C  0.29654137  0.83112537  0.86362125    -0.20000
C2811       C  0.30645120  0.84499071  0.85901413     0.20700
C2812       C  0.30588546  0.85824378  0.87917858    -0.02900
C2813       C  0.29534503  0.85748795  0.90374595    -0.06000
C2814       C  0.28532599  0.84356062  0.90801063     0.21000
C2815       C  0.29485331  0.87064267  0.92402339     0.19100
C2816       C  0.30493228  0.88443313  0.91963522    -0.17400
C2817       C  0.31532954  0.88524577  0.89516422    -0.19700
C2818       C  0.31585936  0.87224061  0.87482242     0.20600
C2819       C  0.32625625  0.87291069  0.85030563    -0.32700
C2820       C  0.32686608  0.85972211  0.83034824     0.01300
C2821       C  0.31700103  0.84580370  0.83472740    -0.24000
C2822       C  0.27458771  0.84304073  0.93204583    -0.28600
C2823       C  0.27337444  0.85644633  0.95176849     0.07000
C2824       C  0.28409411  0.86990881  0.94805631    -0.27300
H2825       H  0.27843908  0.81960771  0.89096261     0.11700
H2826       H  0.29686894  0.82085275  0.84837645     0.12800
H2827       H  0.30468254  0.89464534  0.93501297     0.11900
H2828       H  0.32295464  0.89604428  0.89214336     0.11100
H2829       H  0.33404626  0.88356010  0.84681495     0.16500
H2830       H  0.31769774  0.83561128  0.81932082     0.12400
H2831       H  0.26744808  0.83200958  0.93498158     0.15300
H2832       H  0.28367637  0.88008233  0.96353245     0.15100
C2833       C  0.28491364  0.83100738  0.60895157    -0.17800
C2834       C  0.29648252  0.83098032  0.63187238    -0.20000
C2835       C  0.30227220  0.84584528  0.64378484     0.20700
C2836       C  0.29591675  0.86089615  0.63312574    -0.02900
C2837       C  0.28415221  0.86091981  0.61008330    -0.06000
C2838       C  0.27888080  0.84589759  0.59758129     0.21000
C2839       C  0.27829529  0.87598161  0.59859255     0.19100
C2840       C  0.28381050  0.89083845  0.61096626    -0.17400
C2841       C  0.29541163  0.89081463  0.63384917    -0.19700
C2842       C  0.30174504  0.87593715  0.64474440     0.20600
C2843       C  0.31409873  0.87583452  0.66647740    -0.32700
C2844       C  0.32071283  0.86090767  0.67665300     0.01300
C2845       C  0.31459444  0.84595211  0.66559589    -0.24000
C2846       C  0.26848650  0.84606227  0.57279714    -0.28600
C2847       C  0.26338370  0.86102211  0.56027660     0.07000
C2848       C  0.26784331  0.87592302  0.57381991    -0.27300
H2849       H  0.28097656  0.81937082  0.59963215     0.11700
H2850       H  0.30117122  0.81932239  0.63985324     0.12800
H2851       H  0.27944691  0.90250635  0.60246001     0.11900
H2852       H  0.29969472  0.90246347  0.64260879     0.11100
H2853       H  0.31881087  0.88734050  0.67517985     0.16500
H2854       H  0.31969974  0.83446170  0.67358396     0.12400
H2855       H  0.26533057  0.83460359  0.56188563     0.15300
H2856       H  0.26423458  0.88745250  0.56367201     0.15100
C2857       C  0.57716605  0.83979127  0.63117942    -0.17800
C2858       C  0.56525236  0.84004681  0.60883088    -0.20000
C2859       C  0.55905957  0.85504370  0.59818733     0.20700
C2860       C  0.56504681  0.86994836  0.61003941    -0.02900
C2861       C  0.57713123  0.86969677  0.63260030    -0.06000
C2862       C  0.58315811  0.85452757  0.64328639     0.21000
C2863       C  0.58315013  0.88460368  0.64447363     0.19100
C2864       C  0.57704638  0.89959682  0.63362355    -0.17400
C2865       C  0.56505676  0.89983827  0.61135336    -0.19700
C2866       C  0.55893057  0.88509146  0.59944514     0.20600
C2867       C  0.54676219  0.88522236  0.57727226    -0.32700
C2868       C  0.54058209  0.87039058  0.56546517     0.01300
C2869       C  0.54693355  0.85536096  0.57603477    -0.24000
C2870       C  0.59508567  0.85435936  0.66580756    -0.28600
C2871       C  0.60119980  0.86915132  0.67762828     0.07000
C2872       C  0.59517171  0.88423314  0.66689222    -0.27300
H2873       H  0.58168655  0.82804001  0.63902936     0.11700
H2874       H  0.56082715  0.82848231  0.59993815     0.12800
H2875       H  0.58152736  0.91116287  0.64241405     0.11900
H2876       H  0.56054357  0.91158749  0.60347980     0.11100
H2877       H  0.54207132  0.89688796  0.56930901     0.16500
H2878       H  0.54238443  0.84384101  0.56713550     0.12400
H2879       H  0.59976664  0.84274353  0.67404204     0.15300
H2880       H  0.59990370  0.89563443  0.67598474     0.15100
C2881       C  0.56825118  0.89551401  0.90075060    -0.17800
C2882       C  0.58067629  0.89541094  0.87948147    -0.20000
C2883       C  0.58556651  0.88060391  0.86621255     0.20700
C2884       C  0.57793165  0.86571213  0.87452075    -0.02900
C2885       C  0.56543211  0.86581639  0.89606040    -0.06000
C2886       C  0.56054602  0.88080324  0.90914311     0.21000
C2887       C  0.55781215  0.85094657  0.90443553     0.19100
C2888       C  0.56274680  0.83612053  0.89121504    -0.17400
C2889       C  0.57509526  0.83601784  0.86976302    -0.19700
C2890       C  0.58273471  0.85073593  0.86122709     0.20600
C2891       C  0.59502125  0.85079254  0.83954611    -0.32700
C2892       C  0.60254838  0.86560959  0.83123644     0.01300
C2893       C  0.59788473  0.88043287  0.84466293    -0.24000
C2894       C  0.54805431  0.88083290  0.93040371    -0.28600
C2895       C  0.54042240  0.86606177  0.93897119     0.07000
C2896       C  0.54539523  0.85116165  0.92586579    -0.27300
H2897       H  0.56465610  0.90711452  0.91063102     0.11700
H2898       H  0.58642729  0.90692914  0.87333230     0.12800
H2899       H  0.55702301  0.82459817  0.89741963     0.11900
H2900       H  0.57865366  0.82442536  0.85981089     0.11100
H2901       H  0.59873389  0.83939375  0.82903237     0.16500
H2902       H  0.60377844  0.89180858  0.83804411     0.12400
H2903       H  0.54436470  0.89237354  0.94042307     0.15300
H2904       H  0.53957164  0.83971409  0.93225082     0.15100
C2905       C  0.82239581  0.92483010  0.55820272    -0.17800
C2906       C  0.81160843  0.91147880  0.55797173    -0.20000
C2907       C  0.80528697  0.90546566  0.53125347     0.20700
C2908       C  0.80991381  0.91283665  0.50444519    -0.02900
C2909       C  0.82096431  0.92623549  0.50465633    -0.06000
C2910       C  0.82713999  0.93228456  0.53170141     0.21000
C2911       C  0.82577013  0.93360241  0.47790154     0.19100
C2912       C  0.83290708  0.91376091  0.96243055    -0.17400
C2913       C  0.82244344  0.90008045  0.96431793    -0.19700
C2914       C  0.80343619  0.90688854  0.47752553     0.20600
C2915       C  0.79196014  0.89388499  0.47775065    -0.32700
C2916       C  0.78704367  0.88675392  0.50458759     0.01300
C2917       C  0.79422162  0.89234287  0.53105856    -0.24000
C2918       C  0.83797056  0.94566884  0.53187393    -0.28600
C2919       C  0.84288197  0.95311466  0.50537403     0.07000
C2920       C  0.83674756  0.94696521  0.47840820    -0.27300
H2921       H  0.82703450  0.92932579  0.57913003     0.11700
H2922       H  0.80808647  0.90594218  0.57874400     0.12800
H2923       H  0.84268166  0.91371624  0.94622069     0.11900
H2924       H  0.82437278  0.88978592  0.94951885     0.11100
H2925       H  0.80100990  0.87557024  0.97281644     0.16500
H2926       H  0.79107924  0.88658358  0.55182150     0.12400
H2927       H  0.84265498  0.95021715  0.55274384     0.15300
H2928       H  0.85129433  0.94122074  0.96399112     0.15100
C2929       C  0.71611328  0.83576179  0.64445559    -0.17800
C2930       C  0.72645425  0.83447781  0.61996450    -0.20000
C2931       C  0.72794363  0.84761485  0.60007743     0.20700
C2932       C  0.71911735  0.86228362  0.60517143    -0.02900
C2933       C  0.70870386  0.86360748  0.62991537    -0.06000
C2934       C  0.70709440  0.85020548  0.64948194     0.21000
C2935       C  0.69967866  0.87821472  0.63475482     0.19100
C2936       C  0.70140442  0.89145562  0.61519296    -0.17400
C2937       C  0.71173903  0.89012869  0.59067791    -0.19700
C2938       C  0.72050572  0.87553926  0.58534659     0.20600
C2939       C  0.73060155  0.87397722  0.56050138    -0.32700
C2940       C  0.73963574  0.85943918  0.55515576     0.01300
C2941       C  0.73807760  0.84625912  0.57519229    -0.24000
C2942       C  0.69622435  0.85136026  0.67333497    -0.28600
C2943       C  0.68693920  0.86570426  0.67773447     0.07000
C2944       C  0.68883790  0.87916571  0.65869667    -0.27300
H2945       H  0.71504550  0.82538974  0.65931352     0.11700
H2946       H  0.73320347  0.82314346  0.61645807     0.12800
H2947       H  0.69462310  0.90277326  0.61867452     0.11900
H2948       H  0.71277262  0.90047152  0.57574619     0.11100
H2949       H  0.73162960  0.88421155  0.54529589     0.16500
H2950       H  0.74455672  0.83484123  0.57192279     0.12400
H2951       H  0.69463016  0.84100126  0.68809877     0.15300
H2952       H  0.68158495  0.89019240  0.66224852     0.15100
C2953       C  0.71947213  0.88949430  0.87017979    -0.17800
C2954       C  0.73107770  0.88847849  0.89304308    -0.20000
C2955       C  0.73355720  0.87363148  0.90823340     0.20700
C2956       C  0.72451704  0.85954945  0.89966839    -0.02900
C2957       C  0.71284530  0.86056020  0.87649263    -0.06000
C2958       C  0.71013814  0.87567211  0.86196518     0.21000
C2959       C  0.70361517  0.84654029  0.86836130     0.32700
C2960       C  0.70620203  0.83164456  0.88330011    -0.17400
C2961       C  0.71758249  0.83069662  0.90644884    -0.19700
C2962       C  0.72669374  0.84459234  0.91495083     0.20600
C2963       C  0.73735384  0.84398085  0.93932408    -0.32700
C2964       C  0.74587244  0.85809825  0.94875123     0.01300
C2965       C  0.74428562  0.87278886  0.93268147    -0.24000
C2966       C  0.69797210  0.87674080  0.83986761    -0.28600
C2967       C  0.68865270  0.86282963  0.83176424     0.07000
C2968       C  0.69177614  0.84771563  0.84579879    -0.27300
H2969       H  0.71763973  0.90117560  0.85916768     0.11700
H2970       H  0.73789036  0.89941106  0.89923119     0.12800
H2971       H  0.69921815  0.82077139  0.87739299     0.11900
H2972       H  0.71908979  0.81912896  0.91799563     0.11100
H2973       H  0.73835360  0.83274283  0.95208078     0.16500
H2974       H  0.75055129  0.88376775  0.94036112     0.12400
H2975       H  0.69566097  0.88838726  0.82899231     0.15300
H2976       H  0.68470818  0.83695794  0.83947701     0.15100
C2977       C  0.91742697  0.41749532  0.63764068    -0.17800
C2978       C  0.91749729  0.42948934  0.61547085    -0.20000
C2979       C  0.90266620  0.43618520  0.60496618     0.20700
C2980       C  0.88763266  0.43088444  0.61725586    -0.02900
C2981       C  0.88756270  0.41887624  0.63977829    -0.06000
C2982       C  0.90253033  0.41203308  0.64982712     0.21000
C2983       C  0.87249318  0.41360733  0.65200994     0.19100
C2984       C  0.85768484  0.42040127  0.64175808    -0.17400
C2985       C  0.85775358  0.43220005  0.61934898    -0.19700
C2986       C  0.87263745  0.43746504  0.60688065     0.20600
C2987       C  0.87273745  0.44911507  0.58409492    -0.32700
C2988       C  0.88763095  0.45442393  0.57147505     0.01300
C2989       C  0.90257982  0.44797016  0.58225945    -0.24000
C2990       C  0.90228403  0.39973591  0.67160584    -0.28600
C2991       C  0.88727645  0.39434715  0.68354723     0.07000
C2992       C  0.87247231  0.40149704  0.67400783    -0.27300
H2993       H  0.92903219  0.41242767  0.64515424     0.11700
H2994       H  0.92916091  0.43343332  0.60636354     0.12800
H2995       H  0.84602226  0.41648798  0.65091511     0.11900
H2996       H  0.84613660  0.43716492  0.61167159     0.11100
H2997       H  0.86114988  0.45405373  0.57619335     0.16500
H2998       H  0.91413965  0.45197617  0.57280002     0.12400
H2999       H  0.91369407  0.39423486  0.67914737     0.15300
H3000       H  0.86093493  0.39734176  0.68337812     0.15100
C3001       C  0.86118061  0.43497153  0.88749326    -0.17800
C3002       C  0.86119775  0.42288526  0.86555656    -0.20000
C3003       C  0.87494292  0.41267317  0.86172669     0.20700
C3004       C  0.88881071  0.41458194  0.88023429    -0.02900
C3005       C  0.88885392  0.42689489  0.90217639    -0.06000
C3006       C  0.87494951  0.43709739  0.90581365     0.21000
C3007       C  0.90282846  0.42906376  0.92031422     0.19100
C3008       C  0.91650239  0.41869939  0.91668364    -0.17400
C3009       C  0.91639716  0.40636389  0.89511918    -0.19700
C3010       C  0.90266670  0.40427172  0.87668236     0.20600
C3011       C  0.90256375  0.39216771  0.85459744    -0.32700
C3012       C  0.88887595  0.39046461  0.83595095     0.01300
C3013       C  0.87510823  0.40065237  0.83960487    -0.24000
C3014       C  0.87507576  0.44932309  0.92758083    -0.28600
C3015       C  0.88901802  0.45172674  0.94546615     0.07000
C3016       C  0.90288229  0.44158424  0.94167282    -0.27300
H3017       H  0.85042523  0.44272840  0.89002093     0.11700
H3018       H  0.85046451  0.42154017  0.85154785     0.12800
H3019       H  0.92729783  0.42015192  0.93049972     0.11900
H3020       H  0.92711031  0.39853845  0.89271006     0.11100
H3021       H  0.91313219  0.38419445  0.85160608     0.16500
H3022       H  0.86456928  0.39917107  0.82513762     0.12400
H3023       H  0.86439403  0.45718191  0.93025241     0.15300
H3024       H  0.91362737  0.44332773  0.95553172     0.15100
C3025       C  0.93383101  0.19287696  0.95641034    -0.17800
C3026       C  0.94753077  0.18245987  0.95791720    -0.20000
C3027       C  0.95093277  0.17356537  0.98375314     0.20700
C3028       C  0.94127919  0.17873883  0.50962443    -0.02900
C3029       C  0.92699375  0.18860256  0.50833473    -0.06000
C3030       C  0.92328851  0.19454509  0.98069849     0.21000
C3031       C  0.91584984  0.18855753  0.53212811     0.19100
C3032       C  0.91901817  0.17874120  0.55690291    -0.17400
C3033       C  0.93317024  0.16900955  0.55819613    -0.19700
C3034       C  0.94434983  0.16889074  0.53468522     0.20600
C3035       C  0.95834240  0.15880898  0.53557311    -0.32700
C3036       C  0.96914254  0.15812496  0.51147139     0.01300
C3037       C  0.96469444  0.16321420  0.98554321    -0.24000
C3038       C  0.90989822  0.20550642  0.97993630    -0.28600
C3039       C  0.89896838  0.20885764  0.50673824     0.07000
C3040       C  0.90191059  0.19861520  0.53108324    -0.27300
H3041       H  0.93157307  0.19974829  0.93634978     0.11700
H3042       H  0.95553319  0.18143832  0.93892062     0.12800
H3043       H  0.91056850  0.17863651  0.57535487     0.11900
H3044       H  0.93532955  0.16150143  0.57754551     0.11100
H3045       H  0.96045707  0.15098593  0.55455177     0.16500
H3046       H  0.97274087  0.16203619  0.96661998     0.12400
H3047       H  0.90767037  0.21299512  0.96056405     0.15300
H3048       H  0.89351745  0.19886690  0.54964755     0.15100
C3049       C  0.84131793  0.16403329  0.50364970    -0.17800
C3050       C  0.82941489  0.15171331  0.50685166    -0.20000
C3051       C  0.81261818  0.15573172  0.50743007     0.20700
C3052       C  0.80776517  0.17235679  0.50470068    -0.02900
C3053       C  0.81977382  0.18479115  0.50165595    -0.06000
C3054       C  0.83664159  0.18060136  0.50108314     0.21000
C3055       C  0.81490160  0.20142485  0.49955750     0.19100
C3056       C  0.79811258  0.20546101  0.49996235    -0.17400
C3057       C  0.78620859  0.19311901  0.50238927    -0.19700
C3058       C  0.79090784  0.17655819  0.50482425     0.20600
C3059       C  0.77904883  0.16409265  0.50674528    -0.32700
C3060       C  0.78380934  0.14752272  0.50902013     0.01300
C3061       C  0.80057469  0.14341261  0.50996930    -0.24000
C3062       C  0.84852263  0.19309565  0.49887552    -0.28600
C3063       C  0.84371907  0.20968621  0.49802136     0.07000
C3064       C  0.82691490  0.21375657  0.49792995    -0.27300
H3065       H  0.85420399  0.16060806  0.50337985     0.11700
H3066       H  0.83335060  0.13901955  0.50877695     0.12800
H3067       H  0.79418566  0.21817452  0.49841111     0.11900
H3068       H  0.77331729  0.19653186  0.50243854     0.11100
H3069       H  0.76607544  0.16719093  0.50575781     0.16500
H3070       H  0.80407292  0.13037876  0.00609884     0.12400
H3071       H  0.86150039  0.19000345  0.49962235     0.15300
H3072       H  0.82325517  0.22659045  0.49758248     0.15100
C3073       C  0.90219323  0.29566663  0.61380835    -0.17800
C3074       C  0.90083584  0.28483941  0.59002771    -0.20000
C3075       C  0.88669374  0.27514369  0.58654419     0.20700
C3076       C  0.87398026  0.27597245  0.60756370    -0.02900
C3077       C  0.87534426  0.28687898  0.63159618    -0.06000
C3078       C  0.88943221  0.29692911  0.63441859     0.21000
C3079       C  0.86253031  0.28791835  0.65250465     0.19100
C3080       C  0.84869202  0.27772211  0.64959276    -0.17400
C3081       C  0.84735240  0.26688786  0.62570678    -0.19700
C3082       C  0.85982766  0.26608952  0.60435835     0.20600
C3083       C  0.85833257  0.25567602  0.57979503    -0.32700
C3084       C  0.87087056  0.25498699  0.55831974     0.01300
C3085       C  0.88503481  0.26473506  0.56223150    -0.24000
C3086       C  0.89043450  0.30820949  0.65759926    -0.28600
C3087       C  0.87758897  0.30953302  0.67797741     0.07000
C3088       C  0.86374860  0.29927770  0.67569063    -0.27300
H3089       H  0.91313470  0.30319903  0.61588430     0.11700
H3090       H  0.91076477  0.28419215  0.57415425     0.12800
H3091       H  0.83882063  0.27826596  0.66559049     0.11900
H3092       H  0.83646667  0.25926671  0.62375079     0.11100
H3093       H  0.84740325  0.24824030  0.57796130     0.16500
H3094       H  0.89486694  0.26414380  0.54611995     0.12400
H3095       H  0.90116472  0.31604734  0.65985492     0.15300
H3096       H  0.85396081  0.30028923  0.69180678     0.15100
C3097       C  0.85153628  0.27601843  0.86242891    -0.17800
C3098       C  0.85041954  0.26468380  0.88558780    -0.20000
C3099       C  0.86416532  0.26129815  0.90339880     0.20700
C3100       C  0.87932567  0.26906260  0.89718620    -0.02900
C3101       C  0.88040328  0.28063042  0.87405776    -0.06000
C3102       C  0.86637883  0.28426543  0.85682480     0.21000
C3103       C  0.89536990  0.28897729  0.86887978     0.19100
C3104       C  0.90924050  0.28525723  0.88606281    -0.17400
C3105       C  0.90818877  0.27376922  0.90888555    -0.19700
C3106       C  0.89323700  0.26585457  0.91495331     0.20600
C3107       C  0.89173215  0.25552231  0.93949215    -0.32700
C3108       C  0.87649369  0.24853634  0.94676869     0.01300
C3109       C  0.86284936  0.25101472  0.92823674    -0.24000
C3110       C  0.86736436  0.29639258  0.83487280    -0.28600
C3111       C  0.88210132  0.30505012  0.83039460     0.07000
C3112       C  0.89609310  0.30118373  0.84712301    -0.27300
H3113       H  0.84068005  0.27861709  0.84932911     0.11700
H3114       H  0.83870537  0.25882199  0.88995781     0.12800
H3115       H  0.92082980  0.29147828  0.88223212     0.11900
H3116       H  0.91897473  0.27139178  0.92230378     0.11100
H3117       H  0.90215061  0.25374784  0.95413879     0.16500
H3118       H  0.85103114  0.24583471  0.93425056     0.12400
H3119       H  0.85662612  0.29941416  0.82172385     0.15300
H3120       H  0.90745221  0.30784839  0.84335281     0.15100
C3121       C  0.85611331  0.53920661  0.88637602    -0.17800
C3122       C  0.85533629  0.55116984  0.86420065    -0.20000
C3123       C  0.86929317  0.56049537  0.85697644     0.20700
C3124       C  0.88421903  0.55764173  0.87216434    -0.02900
C3125       C  0.88502108  0.54549868  0.89442952    -0.06000
C3126       C  0.87087626  0.53630279  0.90167844     0.21000
C3127       C  0.89995437  0.54264247  0.90953390     0.19100
C3128       C  0.91392290  0.55193985  0.90228184    -0.17400
C3129       C  0.91311140  0.56401982  0.88037630    -0.19700
C3130       C  0.89833404  0.56698682  0.86524774     0.20600
C3131       C  0.89740649  0.57919026  0.84345802    -0.32700
C3132       C  0.88260909  0.58209341  0.82835256     0.01300
C3133       C  0.86860200  0.57268259  0.83501474    -0.24000
C3134       C  0.87172073  0.52444259  0.92418550    -0.28600
C3135       C  0.88656966  0.52151980  0.93943507     0.07000
C3136       C  0.90065319  0.53063264  0.93175598    -0.27300
H3137       H  0.84513795  0.53224122  0.89160959     0.11700
H3138       H  0.84378474  0.55318296  0.85279126     0.12800
H3139       H  0.92548088  0.54991971  0.91366565     0.11900
H3140       H  0.92405400  0.57107416  0.87530165     0.11100
H3141       H  0.90816974  0.58648948  0.83818179     0.16500
H3142       H  0.85719451  0.57500437  0.82330268     0.12400
H3143       H  0.86080601  0.51745778  0.92977318     0.15300
H3144       H  0.91213344  0.52855985  0.94338315     0.15100
C3145       C  0.90908725  0.55869492  0.59487767    -0.17800
C3146       C  0.90832315  0.57119598  0.61599692    -0.20000
C3147       C  0.89453141  0.57268193  0.63433251     0.20700
C3148       C  0.88127537  0.56157646  0.63122256    -0.02900
C3149       C  0.88199335  0.54904322  0.60973873    -0.06000
C3150       C  0.89602536  0.54755521  0.59164981     0.21000
C3151       C  0.86873850  0.53796049  0.60648157     0.19100
C3152       C  0.85493908  0.53945973  0.62487120    -0.17400
C3153       C  0.85429087  0.55179971  0.64639162    -0.19700
C3154       C  0.86739207  0.56289110  0.64976227     0.20600
C3155       C  0.86699735  0.57512888  0.67157571    -0.32700
C3156       C  0.88027562  0.58602315  0.67486889     0.01300
C3157       C  0.89388235  0.58490834  0.65604422    -0.24000
C3158       C  0.89678247  0.53494769  0.57064995    -0.28600
C3159       C  0.88359649  0.52394371  0.56707522     0.07000
C3160       C  0.86956553  0.52555574  0.58497087    -0.27300
H3161       H  0.91991686  0.55772168  0.58108333     0.11700
H3162       H  0.91858225  0.57962746  0.61815009     0.12800
H3163       H  0.84467698  0.53103434  0.62270413     0.11900
H3164       H  0.84355824  0.55264317  0.66045235     0.11100
H3165       H  0.85653699  0.57608765  0.68628475     0.16500
H3166       H  0.90410325  0.59334572  0.65886402     0.12400
H3167       H  0.90758732  0.53382290  0.55680137     0.15300
H3168       H  0.85941108  0.51701839  0.58244460     0.15100
C3169       C  0.78651297  0.78570775  0.49910308    -0.17800
C3170       C  0.79824141  0.77326288  0.50261878    -0.20000
C3171       C  0.81504169  0.77712549  0.50443546     0.20700
C3172       C  0.82011126  0.79369278  0.50229573    -0.02900
C3173       C  0.80825660  0.80626673  0.49832639    -0.06000
C3174       C  0.79137969  0.80222999  0.49713329     0.21000
C3175       C  0.81325079  0.82287050  0.49615083     0.19100
C3176       C  0.83213994  0.82515790  0.00290027    -0.17400
C3177       C  0.84418038  0.81297361  0.00652340    -0.19700
C3178       C  0.83971568  0.79633592  0.00885725     0.20600
C3179       C  0.85174525  0.78397151  0.01154021    -0.32700
C3180       C  0.84371998  0.76847899  0.50912337     0.01300
C3181       C  0.82686411  0.76466614  0.50771368    -0.24000
C3182       C  0.77961701  0.81480801  0.49514579    -0.28600
C3183       C  0.78442310  0.83141279  0.49434890     0.07000
C3184       C  0.80127361  0.83536740  0.49384763    -0.27300
H3185       H  0.77360294  0.78241403  0.49817497     0.11700
H3186       H  0.79415595  0.76060145  0.50407906     0.12800
H3187       H  0.83592282  0.83790606  0.00127006     0.11900
H3188       H  0.85701117  0.81656463  0.00736161     0.11100
H3189       H  0.86468178  0.78723470  0.01133727     0.16500
H3190       H  0.82302448  0.75189179  0.50828129     0.12400
H3191       H  0.76662864  0.81175410  0.49556582     0.15300
H3192       H  0.80500527  0.84817491  0.49364747     0.15100
C3193       C  0.94564461  0.79356697  0.55619846    -0.17800
C3194       C  0.93210122  0.78287591  0.55634236    -0.20000
C3195       C  0.92188351  0.78148478  0.53145357     0.20700
C3196       C  0.92546329  0.79093063  0.50611350    -0.02900
C3197       C  0.93916184  0.80163744  0.50591749    -0.06000
C3198       C  0.94926598  0.80303119  0.53112763     0.21000
C3199       C  0.94650368  0.81038952  0.97441882     0.19100
C3200       C  0.93793224  0.80677223  0.94831427    -0.17400
C3201       C  0.92476259  0.79569794  0.94854968    -0.19700
C3202       C  0.91995995  0.78803906  0.97488754     0.20600
C3203       C  0.90693435  0.77675726  0.97523210    -0.32700
C3204       C  0.89866014  0.76897957  0.50562700     0.01300
C3205       C  0.90836967  0.77061436  0.53114115    -0.24000
C3206       C  0.96277513  0.81386350  0.53077349    -0.28600
C3207       C  0.96642977  0.82312848  0.50535970     0.07000
C3208       C  0.95637141  0.82148090  0.48027388    -0.27300
H3209       H  0.95330906  0.79441583  0.57571371     0.11700
H3210       H  0.92963673  0.77567020  0.57592189     0.12800
H3211       H  0.94141461  0.81251098  0.92769978     0.11900
H3212       H  0.91836403  0.79307747  0.92809396     0.11100
H3213       H  0.90042245  0.77405569  0.95491337     0.16500
H3214       H  0.90580402  0.76298436  0.55017552     0.12400
H3215       H  0.97049683  0.81499955  0.55018345     0.15300
H3216       H  0.96324935  0.82743171  0.95395024     0.15100
C3217       C  0.90233618  0.68742354  0.92850548    -0.17800
C3218       C  0.90408636  0.67695698  0.90424932    -0.20000
C3219       C  0.89273047  0.67753187  0.88095371     0.20700
C3220       C  0.87940038  0.68866652  0.88217147    -0.02900
C3221       C  0.87758413  0.69913836  0.90674750    -0.06000
C3222       C  0.88916664  0.69856643  0.92987087     0.21000
C3223       C  0.86429880  0.71028869  0.90800406     0.19100
C3224       C  0.85294713  0.71087516  0.88465426    -0.17400
C3225       C  0.85471148  0.70046114  0.86030049    -0.19700
C3226       C  0.86787483  0.68932107  0.85887242     0.20600
C3227       C  0.86962109  0.67868325  0.83475455    -0.32700
C3228       C  0.88274408  0.66746863  0.83368860     0.01300
C3229       C  0.89435508  0.66705092  0.85661437    -0.24000
C3230       C  0.88753725  0.70929740  0.95379317    -0.28600
C3231       C  0.87429551  0.72046838  0.95552341     0.07000
C3232       C  0.86270482  0.72083642  0.93232734    -0.27300
H3233       H  0.91130444  0.68682503  0.94618435     0.11700
H3234       H  0.91433759  0.66843252  0.90368291     0.12800
H3235       H  0.84269838  0.71940299  0.88521425     0.11900
H3236       H  0.84576965  0.70111043  0.84258689     0.11100
H3237       H  0.86062584  0.67883469  0.81706470     0.16500
H3238       H  0.90440681  0.65828456  0.85568950     0.12400
H3239       H  0.89678047  0.70914548  0.97106726     0.15300
H3240       H  0.85273938  0.72959647  0.93219936     0.15100
C3241       C  0.84815918  0.70491947  0.61615569    -0.17800
C3242       C  0.84974182  0.69389761  0.63967312    -0.20000
C3243       C  0.86534677  0.68877975  0.64927000     0.20700
C3244       C  0.87954537  0.69497385  0.63525403    -0.02900
C3245       C  0.87794742  0.70623091  0.61161842    -0.06000
C3246       C  0.86215740  0.71111955  0.60190255     0.21000
C3247       C  0.89210568  0.71217749  0.59712637     0.19100
C3248       C  0.90771980  0.70696895  0.60666670    -0.17400
C3249       C  0.90930185  0.69580299  0.63005074    -0.19700
C3250       C  0.89530008  0.68962019  0.64436712     0.20600
C3251       C  0.89670746  0.67790440  0.66710952    -0.32700
C3252       C  0.88255108  0.67157108  0.68080641     0.01300
C3253       C  0.86696363  0.67726970  0.67213387    -0.24000
C3254       C  0.86062138  0.72160760  0.57741248    -0.28600
C3255       C  0.87463944  0.72727368  0.56250060     0.07000
C3256       C  0.89034974  0.72269521  0.57266441    -0.27300
H3257       H  0.83595351  0.70846714  0.60890388     0.11700
H3258       H  0.83872666  0.68919607  0.65011571     0.12800
H3259       H  0.91872143  0.71136194  0.59576137     0.11900
H3260       H  0.92148794  0.69184966  0.63670885     0.11100
H3261       H  0.90872343  0.67343867  0.67376653     0.16500
H3262       H  0.85607952  0.67228556  0.68264001     0.12400
H3263       H  0.84851728  0.72471586  0.56898283     0.15300
H3264       H  0.90113848  0.72665670  0.56056653     0.15100
loop_ 
_geom_bond_atom_site_label_1 
_geom_bond_atom_site_label_2 
_geom_bond_distance 
_geom_bond_site_symmetry_2 
_ccdc_geom_bond_type 
C1            C2   1.539       .  S
C1            C7   1.529       .  S
C1            C5   1.533       .  S
C1         C1599   1.525       .  S
C2            H9   1.082       .  S
C2         C1635   1.368       .  D
C3            C4   1.545       .  S
C3         C1634   1.367   1_554  D
C3         C1548   1.482       .  S
C4            C8   1.546       .  S
C4            C6   1.544       .  S
C4           H10   1.110       .  S
C5           H11   1.087       .  S
C5         C1638   1.363       .  D
C6         C1637   1.364   1_554  D
C6         C1572   1.484       .  S
C7         H1644   1.087       .  S
C7         C1640   1.362       .  D
C8         C1639   1.362       .  D
C8         C1623   1.479       .  S
H12        C1639   1.087       .  S
N13          C18   1.352       .  A
N13          C17   1.356       .  A
N13          H45   1.037       .  S
N14          C21   1.353       .  A
N14          C22   1.350       .  A
N15          C20   1.355       .  A
N15          C19   1.352       .  A
N15          H46   1.038       .  S
N16          C23   1.351       .  A
N16          C24   1.354       .  A
C17          C25   1.386       .  A
C17          C33   1.417       .  A
C18          C34   1.416       .  A
C18          C26   1.388       .  A
C19          C27   1.388       .  A
C19          C36   1.416       .  A
C20          C35   1.415       .  A
C20          C28   1.386       .  A
C21          C33   1.413       .  A
C21          C29   1.385       .  A
C22          C36   1.413       .  A
C22          C30   1.387       .  A
C23          C31   1.388       .  A
C23          C34   1.415       .  A
C24          C32   1.385       .  A
C24          C35   1.414       .  A
C25          C26   1.376       .  A
C25          H37   1.082       .  S
C26          H38   1.082       .  S
C27          C28   1.375       .  A
C27          H39   1.082       .  S
C28          H40   1.082       .  S
C29          C30   1.373       .  A
C29          H41   1.082       .  S
C30          H42   1.082       .  S
C31          C32   1.373       .  A
C31          H43   1.082       .  S
C32          H44   1.082       .  S
C33        C1620   1.491       .  S
C34        C1524   1.479       .  S
C35        C1500   1.491       .  S
C36        C1596   1.479       .  S
C47          C48   1.542       .  S
C47          C53   1.531       .  S
C47          C51   1.529       .  S
C47        C1452   1.528       .  S
C48          H55   1.081       .  S
C48          C49   1.369       .  D
C49        C1682   1.542   1_554  S
C49        C1431   1.482       .  S
C50          C54   1.544       .  S
C50        C1681   1.546       .  S
C50        C1684   1.539       .  S
C50          H56   1.111       .  S
C51          H57   1.087       .  S
C51          C52   1.362       .  D
C52        C1682   1.537   1_554  S
C52        C1407   1.474       .  S
C53          H58   1.087   1_554  S
C53        C1686   1.365   1_554  D
C54        C1685   1.364       .  D
C54        C1476   1.479       .  S
N59          C64   1.357       .  A
N59          C63   1.354       .  A
N59          H91   1.037       .  S
N60          C67   1.352       .  A
N60          C68   1.353       .  A
N61          C66   1.354       .  A
N61          C65   1.356       .  A
N61          H92   1.038       .  S
N62          C69   1.354       .  A
N62          C70   1.351       .  A
C63          C71   1.387       .  A
C63          C79   1.419       .  A
C64          C80   1.421       .  A
C64          C72   1.388       .  A
C65          C73   1.387       .  A
C65          C82   1.419       .  A
C66          C81   1.418       .  A
C66          C74   1.387       .  A
C67          C79   1.416       .  A
C67          C75   1.387       .  A
C68          C82   1.414       .  A
C68          C76   1.385       .  A
C69          C77   1.387       .  A
C69          C80   1.416       .  A
C70          C78   1.386       .  A
C70          C81   1.415       .  A
C71          C72   1.375       .  A
C71          H83   1.082       .  S
C72          H84   1.082       .  S
C73          C74   1.375       .  A
C73          H85   1.082       .  S
C74          H86   1.082       .  S
C75          C76   1.372       .  A
C75          H87   1.082       .  S
C76          H88   1.082       .  S
C77          C78   1.372       .  A
C77          H89   1.082       .  S
C78          H90   1.082       .  S
C79        C1455   1.488       .  S
C80        C1359   1.494       .  S
C81        C1380   1.484       .  S
C82        C1479   1.492       .  S
O93        Ni101   1.926       .  S
O93         C103   1.283       .  A
O94       Ni1733   1.924       .  S
O94         C104   1.283       .  A
O95        Ni101   1.917       .  S
O95         C105   1.282       .  A
O96       Ni1733   1.917       .  S
O96         C106   1.281       .  A
O97       Ni1734   1.916       .  S
O97         C106   1.282       .  A
O98        Ni102   1.911       .  S
O98         C105   1.281       .  A
O99       Ni1734   1.923       .  S
O99         C104   1.282       .  A
O100       Ni102   1.922       .  S
O100        C103   1.283       .  A
Ni101      O1726   1.926   1_554  S
Ni101      O1728   1.920   1_554  S
Ni101      Ni102   2.386       .  S
Ni102      O1729   1.911   1_554  S
Ni102      O1731   1.922   1_554  S
C103       C1356   1.491       .  S
C104       C1503   1.486       .  S
C105       C1527   1.478       .  S
C106       C1383   1.479       .  S
C107        C108   1.532       .  S
C107        C113   1.528       .  S
C107        C111   1.529       .  S
C107       C1308   1.521       .  S
C108        H115   1.083       .  S
C108        C109   1.367       .  D
C109       C1742   1.552   1_554  S
C109       C1551   1.481   1_554  S
C110        C114   1.550       .  S
C110       C1741   1.545       .  S
C110       C1744   1.547       .  S
C110        H116   1.110       .  S
C111        H117   1.083       .  S
C111        C112   1.369       .  D
C112       C1742   1.556   1_554  S
C112       C1284   1.506       .  S
C113        H118   1.087       .  S
C113       C1746   1.361   1_554  D
C114       C1745   1.366       .  D
C114       C1332   1.484       .  S
N119        C124   1.354       .  A
N119        C123   1.350       .  A
N119        H151   1.037       .  S
N120        C127   1.349       .  A
N120        C128   1.351       .  A
N121        C126   1.354       .  A
N121        C125   1.357       .  A
N121        H152   1.039       .  S
N122        C129   1.353       .  A
N122        C130   1.350       .  A
C123        C131   1.387       .  A
C123        C139   1.412       .  A
C124        C140   1.414       .  A
C124        C132   1.387       .  A
C125        C133   1.386       .  A
C125        C142   1.419       .  A
C126        C141   1.418       .  A
C126        C134   1.387       .  A
C127        C139   1.410       .  A
C127        C135   1.387       .  A
C128        C142   1.411       .  A
C128        C136   1.386       .  A
C129        C137   1.385       .  A
C129        C140   1.413       .  A
C130        C138   1.388       .  A
C130        C141   1.414       .  A
C131        C132   1.375       .  A
C131        H143   1.082       .  S
C132        H144   1.082       .  S
C133        C134   1.375       .  A
C133        H145   1.082       .  S
C134        H146   1.082       .  S
C135        C136   1.371       .  A
C135        H147   1.082       .  S
C136        H148   1.082       .  S
C137        C138   1.374       .  A
C137        H149   1.082       .  S
C138        H150   1.082       .  S
C139       C1311   1.472       .  S
C140       C1239   1.486       .  S
C141       C1260   1.481       .  S
C142       C1335   1.494       .  S
C153        C154   1.540       .  S
C153        C157   1.536       .  S
C153       C1791   1.525       .  S
C153       C1191   1.524       .  S
C154        H161   1.081       .  S
C154       C1787   1.366       .  D
C155        C156   1.543   1_556  S
C155       C1786   1.364       .  D
C155       C1164   1.484   1_556  S
C156        C160   1.547       .  S
C156        C158   1.547   1_554  S
C156        H162   1.108       .  S
C157        H163   1.086       .  S
C157       C1790   1.367       .  D
C158       C1789   1.372       .  D
C158       C1140   1.497   1_556  S
C159       C1785   1.525   1_554  S
C159        H164   1.087       .  S
C159        C160   1.362       .  D
C160       C1215   1.478       .  S
N165        C170   1.356       .  A
N165        C169   1.353       .  A
N165        H197   1.036       .  S
N166        C173   1.349       .  A
N166        C174   1.353       .  A
N167        C172   1.351       .  A
N167        C171   1.355       .  A
N167        H198   1.039       .  S
N168        C175   1.353       .  A
N168        C176   1.351       .  A
C169        C177   1.388       .  A
C169        C185   1.418       .  A
C170        C186   1.419       .  A
C170        C178   1.387       .  A
C171        C179   1.386       .  A
C171        C188   1.414       .  A
C172        C187   1.412       .  A
C172        C180   1.388       .  A
C173        C185   1.414       .  A
C173        C181   1.388       .  A
C174        C188   1.413       .  A
C174        C182   1.385       .  A
C175        C183   1.386       .  A
C175        C186   1.414       .  A
C176        C184   1.387       .  A
C176        C187   1.413       .  A
C177        C178   1.376       .  A
C177        H189   1.082       .  S
C178        H190   1.082       .  S
C179        C180   1.372       .  A
C179        H191   1.082       .  S
C180        H192   1.083       .  S
C181        C182   1.372       .  A
C181        H193   1.082       .  S
C182        H194   1.082       .  S
C183        C184   1.373       .  A
C183        H195   1.082       .  S
C184        H196   1.082       .  S
C185       C1116   1.479       .  S
C186       C1212   1.489       .  S
C187       C1188   1.477       .  S
C188       C1092   1.492       .  S
O199       Ni207   1.923       .  S
O199        C209   1.283       .  A
O200      Ni1839   1.927       .  S
O200        C210   1.283       .  A
O201       Ni207   1.914       .  S
O201        C211   1.281       .  A
O202      Ni1839   1.920       .  S
O202        C212   1.282       .  A
O203      Ni1840   1.913       .  S
O203        C212   1.281       .  A
O204       Ni208   1.917       .  S
O204        C211   1.282       .  A
O205      Ni1840   1.922       .  S
O205        C210   1.282       .  A
O206       Ni208   1.917       .  S
O206        C209   1.282       .  A
Ni207      O1832   1.924   1_554  S
Ni207      O1834   1.915   1_554  S
Ni207      Ni208   2.386       .  S
Ni208      O1835   1.916   1_554  S
Ni208      O1837   1.920   1_554  S
C209       C1236   1.485       .  S
C210       C1095   1.481       .  S
C211       C1119   1.479       .  S
C212       C1263   1.481       .  S
C213        C214   1.534       .  S
C213        C219   1.529       .  S
C213        C217   1.538       .  S
C213       C1047   1.525       .  S
C214        H221   1.087       .  S
C214        C215   1.364       .  D
C215       C1848   1.545       .  S
C215       C3060   1.476       .  S
C216        C220   1.549       .  S
C216       C1847   1.541       .  S
C216       C1850   1.539       .  S
C216        H222   1.111       .  S
C217        H223   1.083       .  S
C217        C218   1.365       .  D
C218       C1848   1.543       .  S
C218       C1023   1.484       .  S
C219        H224   1.087       .  S
C219       C1852   1.364       .  D
C220       C1851   1.364       .  D
C220       C1068   1.482       .  S
N225        C230   1.352       .  A
N225        C229   1.354       .  A
N225        H257   1.036       .  S
N226        C233   1.351       .  A
N226        C234   1.349       .  A
N227        C232   1.353       .  A
N227        C231   1.352       .  A
N227        H258   1.037       .  S
N228        C235   1.349       .  A
N228        C236   1.352       .  A
C229        C237   1.387       .  A
C229        C245   1.415       .  A
C230        C246   1.415       .  A
C230        C238   1.388       .  A
C231        C239   1.387       .  A
C231        C248   1.413       .  A
C232        C247   1.415       .  A
C232        C240   1.387       .  A
C233        C245   1.411       .  A
C233        C241   1.386       .  A
C234        C248   1.412       .  A
C234        C242   1.387       .  A
C235        C243   1.386       .  A
C235        C246   1.411       .  A
C236        C244   1.386       .  A
C236        C247   1.413       .  A
C237        C238   1.374       .  A
C237        H249   1.082       .  S
C238        H250   1.082       .  S
C239        C240   1.373       .  A
C239        H251   1.082       .  S
C240        H252   1.082       .  S
C241        C242   1.371       .  A
C241        H253   1.082       .  S
C242        H254   1.082       .  S
C243        C244   1.371       .  A
C243        H255   1.082       .  S
C244        H256   1.082       .  S
C245        C972   1.482       .  S
C246       C1044   1.475       .  S
C247       C1071   1.489       .  S
C248        C999   1.475       .  S
C259        C260   1.541       .  S
C259        C265   1.527       .  S
C259        C263   1.539       .  S
C259        C924   1.532       .  S
C260        H267   1.086       .  S
C260        C261   1.370       .  D
C261       C1894   1.543   1_554  S
C261        C900   1.482       .  S
C262        C266   1.542       .  S
C262       C1893   1.544       .  S
C262       C1896   1.537       .  S
C262        H268   1.111       .  S
C263        H269   1.079       .  S
C263        C264   1.362       .  D
C264       C1894   1.535   1_554  S
C264        C879   1.480   1_554  S
C265        H270   1.087   1_554  S
C265       C1898   1.365   1_554  D
C266       C1897   1.363       .  D
C266        C951   1.476       .  S
N271        C276   1.355       .  A
N271        C275   1.353       .  A
N271        H303   1.036       .  S
N272        C279   1.349       .  A
N272        C280   1.353       .  A
N273        C278   1.350       .  A
N273        C277   1.354       .  A
N273        H304   1.038       .  S
N274        C281   1.353       .  A
N274        C282   1.351       .  A
C275        C283   1.387       .  A
C275        C291   1.417       .  A
C276        C292   1.419       .  A
C276        C284   1.387       .  A
C277        C285   1.386       .  A
C277        C294   1.413       .  A
C278        C293   1.413       .  A
C278        C286   1.388       .  A
C279        C291   1.413       .  A
C279        C287   1.388       .  A
C280        C294   1.410       .  A
C280        C288   1.384       .  A
C281        C289   1.386       .  A
C281        C292   1.415       .  A
C282        C290   1.387       .  A
C282        C293   1.414       .  A
C283        C284   1.376       .  A
C283        H295   1.082       .  S
C284        H296   1.082       .  S
C285        C286   1.375       .  A
C285        H297   1.082       .  S
C286        H298   1.082       .  S
C287        C288   1.372       .  A
C287        H299   1.082       .  S
C288        H300   1.082       .  S
C289        C290   1.373       .  A
C289        H301   1.082       .  S
C290        H302   1.082       .  S
C291        C852   1.477       .  S
C292        C948   1.491       .  S
C293        C927   1.477       .  S
C294        C828   1.487       .  S
O305       Ni313   1.931       .  S
O305        C315   1.284       .  A
O306      Ni1945   1.924       .  S
O306        C316   1.283       .  A
O307       Ni313   1.917       .  S
O307        C317   1.281       .  A
O308      Ni1945   1.917       .  S
O308        C318   1.282       .  A
O309      Ni1946   1.909       .  S
O309        C318   1.280       .  A
O310       Ni314   1.910       .  S
O310        C317   1.281       .  A
O311      Ni1946   1.912       .  S
O311        C316   1.281       .  A
O312       Ni314   1.917       .  S
O312        C315   1.281       .  A
Ni313      O1938   1.930   1_554  S
Ni313      O1940   1.918   1_554  S
Ni313      Ni314   2.386       .  S
Ni314      O1941   1.914   1_554  S
Ni314      O1943   1.917   1_554  S
C315        C831   1.487       .  S
C316        C975   1.484       .  S
C317        C996   1.478       .  S
C318        C855   1.476       .  S
C319        C320   1.531       .  S
C319        C325   1.525       .  S
C319        C323   1.538       .  S
C319        C783   1.525       .  S
C320        H327   1.083       .  S
C320        C321   1.367       .  D
C321       C1954   1.550   1_554  S
C321       C1167   1.492       .  S
C322        C326   1.554       .  S
C322       C1953   1.559       .  S
C322       C1956   1.549       .  S
C322        H328   1.109       .  S
C323        H329   1.085       .  S
C323        C324   1.367       .  D
C324       C1954   1.545   1_554  S
C324        C759   1.487       .  S
C325        H330   1.087       .  S
C325       C1958   1.363   1_554  D
C326       C1957   1.362       .  D
C326        C807   1.488       .  S
N331        C336   1.356       .  A
N331        C335   1.352       .  A
N331        H363   1.034       .  S
N332        C339   1.351       .  A
N332        C340   1.355       .  A
N333        C338   1.352       .  A
N333        C337   1.356       .  A
N333        H364   1.035       .  S
N334        C341   1.353       .  A
N334        C342   1.350       .  A
C335        C343   1.390       .  A
C335        C351   1.420       .  A
C336        C352   1.417       .  A
C336        C344   1.386       .  A
C337        C345   1.386       .  A
C337        C354   1.419       .  A
C338        C353   1.417       .  A
C338        C346   1.388       .  A
C339        C351   1.417       .  A
C339        C347   1.388       .  A
C340        C354   1.417       .  A
C340        C348   1.385       .  A
C341        C349   1.385       .  A
C341        C352   1.413       .  A
C342        C350   1.388       .  A
C342        C353   1.415       .  A
C343        C344   1.373       .  A
C343        H355   1.082       .  S
C344        H356   1.082       .  S
C345        C346   1.374       .  A
C345        H357   1.082       .  S
C346        H358   1.082       .  S
C347        C348   1.373       .  A
C347        H359   1.082       .  S
C348        H360   1.082       .  S
C349        C350   1.372       .  A
C349        H361   1.082       .  S
C350        H362   1.082       .  S
C351        C780   1.478       .  S
C352        C711   1.488       .  S
C353        C732   1.477       .  S
C354        C804   1.496       .  S
C365        C366   1.530       .  S
C365        C371   1.532       .  S
C365        C369   1.541       .  S
C365        C660   1.526       .  S
C366        H373   1.087       .  S
C366        C367   1.362       .  D
C367       C2000   1.542       .  S
C367       C2535   1.471       .  S
C368        C372   1.546       .  S
C368       C1999   1.545       .  S
C368       C2002   1.546       .  S
C368        H374   1.110       .  S
C369        H375   1.079       .  S
C369        C370   1.367       .  D
C370       C2000   1.545       .  S
C370        C636   1.490       .  S
C371        H376   1.087       .  S
C371       C2004   1.365       .  D
C372       C2003   1.365       .  D
C372        C684   1.485       .  S
N377        C382   1.355       .  A
N377        C381   1.351       .  A
N377        H409   1.038       .  S
N378        C385   1.349       .  A
N378        C386   1.352       .  A
N379        C384   1.351       .  A
N379        C383   1.355       .  A
N379        H410   1.037       .  S
N380        C387   1.352       .  A
N380        C388   1.350       .  A
C381        C389   1.388       .  A
C381        C397   1.415       .  A
C382        C398   1.414       .  A
C382        C390   1.386       .  A
C383        C391   1.387       .  A
C383        C400   1.417       .  A
C384        C399   1.413       .  A
C384        C392   1.387       .  A
C385        C397   1.412       .  A
C385        C393   1.387       .  A
C386        C400   1.413       .  A
C386        C394   1.386       .  A
C387        C395   1.386       .  A
C387        C398   1.411       .  A
C388        C396   1.387       .  A
C388        C399   1.412       .  A
C389        C390   1.374       .  A
C389        H401   1.082       .  S
C390        H402   1.082       .  S
C391        C392   1.375       .  A
C391        H403   1.082       .  S
C392        H404   1.082       .  S
C393        C394   1.371       .  A
C393        H405   1.082       .  S
C394        H406   1.082       .  S
C395        C396   1.372       .  A
C395        H407   1.082       .  S
C396        H408   1.082       .  S
C397        C663   1.477       .  S
C398        C588   1.484       .  S
C399        C615   1.475       .  S
C400        C687   1.491       .  S
O411       Ni419   1.918       .  S
O411        C421   1.282       .  A
O412      Ni2051   1.922       .  S
O412        C422   1.283       .  A
O413       Ni419   1.903       .  S
O413        C423   1.279       .  A
O414      Ni2051   1.914       .  S
O414        C424   1.280       .  A
O415      Ni2052   1.913       .  S
O415        C424   1.282       .  A
O416       Ni420   1.922       .  S
O416        C423   1.283       .  A
O417      Ni2052   1.919       .  S
O417        C422   1.282       .  A
O418       Ni420   1.922       .  S
O418        C421   1.283       .  A
Ni419      O2044   1.917   1_554  S
Ni419      O2046   1.904   1_554  S
Ni419      Ni420   2.386       .  S
Ni420      O2047   1.923   1_554  S
Ni420      O2049   1.922   1_554  S
C421        C708   1.486       .  S
C422        C591   1.486       .  S
C423        C612   1.478       .  S
C424        C735   1.477       .  S
O425       Ni433   1.923   1_545  S
O425       C2067   1.281       .  A
O426       Ni433   1.917       .  S
O426       C2068   1.281       .  A
O427       Ni433   1.933   1_545  S
O427       C2069   1.285       .  A
O428       Ni433   1.928       .  S
O428       C2070   1.285       .  A
O429       Ni434   1.916       .  S
O429        C438   1.281       .  A
O430       Ni434   1.909   1_545  S
O430        C437   1.280       .  A
O431       Ni434   1.917       .  S
O431        C436   1.282       .  A
O432       Ni434   1.922   1_545  S
O432        C435   1.284       .  A
Ni433     Ni2066   2.387       .  S
Ni434     Ni2065   2.387   1_554  S
C435        C876   1.482       .  S
C435       O2057   1.280   1_554  A
C436        C564   1.470       .  S
C436       O2058   1.279   1_554  A
C437        C543   1.484       .  S
C437       O2059   1.284   1_554  A
C438       C1143   1.484       .  S
C438       O2060   1.284   1_554  A
O439       Ni447   1.915   1_655  S
O439        C449   1.281       .  A
O440       Ni447   1.920       .  S
O440        C450   1.280       .  A
O441       Ni447   1.927   1_655  S
O441        C451   1.284       .  A
O442       Ni447   1.923       .  S
O442        C452   1.283       .  A
O443       Ni448   1.912       .  S
O443       C2084   1.280       .  A
O444       Ni448   1.908   1_655  S
O444       C2083   1.279       .  A
O445       Ni448   1.924       .  S
O445       C2082   1.282       .  A
O446       Ni448   1.926   1_655  S
O446       C2081   1.283       .  A
Ni447     Ni2080   2.387   1_554  S
Ni448     Ni2079   2.388       .  S
C449        C516   1.486       .  S
C449       O2078   1.284   1_554  A
C450        C639   1.474       .  S
C450       O2077   1.283   1_554  A
C451       C1404   1.478       .  S
C451       O2076   1.278   1_554  A
C452        C540   1.482       .  S
C452       O2075   1.280   1_554  A
O453       Ni461   1.916   1_655  S
O453       C2095   1.281       .  A
O454       Ni461   1.914       .  S
O454       C2096   1.280       .  A
O455       Ni461   1.921   1_655  S
O455       C2097   1.283       .  A
O456       Ni461   1.912       .  S
O456       C2098   1.280       .  A
O457       Ni462   1.913       .  S
O457        C466   1.281       .  A
O458       Ni462   1.914   1_655  S
O458        C465   1.281       .  A
O459       Ni462   1.920       .  S
O459        C464   1.281       .  A
O460       Ni462   1.916   1_655  S
O460        C463   1.282   1_554  A
Ni461     Ni2094   2.388       .  S
Ni462     Ni2093   2.389   1_554  S
C463        C495   1.482       .  S
C463       O2085   1.282       .  A
C464        C756   1.468       .  S
C464       O2086   1.280   1_554  A
C465       C1575   1.482       .  S
C465       O2087   1.283   1_554  A
C466        C567   1.472       .  S
C466       O2088   1.281   1_554  A
O467       Ni475   1.914       .  S
O467       C2109   1.280       .  A
O468       Ni475   1.909   1_545  S
O468       C2110   1.280       .  A
O469       Ni475   1.920       .  S
O469       C2111   1.283       .  A
O470       Ni475   1.919   1_545  S
O470       C2112   1.283       .  A
O471       Ni476   1.914   1_545  S
O471        C480   1.280       .  A
O472       Ni476   1.911       .  S
O472        C479   1.281   1_554  A
O473       Ni476   1.920   1_545  S
O473        C478   1.283       .  A
O474       Ni476   1.919       .  S
O474        C477   1.282       .  A
Ni475     Ni2108   2.386       .  S
Ni476     Ni2107   2.387   1_554  S
C477       C1287   1.478       .  S
C477       O2099   1.282   1_554  A
C478        C519   1.486       .  S
C478       O2100   1.283   1_554  A
C479        C492   1.479       .  S
C479       O2101   1.281       .  A
C480       C1020   1.479       .  S
C480       O2102   1.284   1_554  A
C481        C482   1.401       .  A
C481        C486   1.405       .  A
C481        H497   1.083       .  S
C482        C483   1.404       .  A
C482        H498   1.084       .  S
C483        C493   1.405       .  A
C483        C484   1.412       .  A
C484        C490   1.411   1_556  A
C484        C485   1.411       .  A
C485        C487   1.411   1_556  A
C485        C486   1.411       .  A
C486        C494   1.406       .  A
C487        C496   1.399       .  A
C487        C488   1.402       .  A
C488        C489   1.396       .  A
C488        H499   1.084       .  S
C489        C490   1.402       .  A
C489        H500   1.084       .  S
C490        C491   1.398       .  A
C491        C492   1.406   1_554  A
C491        H501   1.084       .  S
C492        C493   1.408       .  A
C493        H502   1.084       .  S
C494        C495   1.409       .  A
C494        H503   1.084       .  S
C495        C496   1.406   1_556  A
C496        H504   1.084       .  S
C505        C506   1.399       .  A
C505        C510   1.403       .  A
C505        H521   1.084       .  S
C506        C507   1.404       .  A
C506        H522   1.084       .  S
C507        C517   1.403       .  A
C507        C508   1.411       .  A
C508        C514   1.412   1_554  A
C508        C509   1.414       .  A
C509        C511   1.411   1_554  A
C509        C510   1.411       .  A
C510        C518   1.403       .  A
C511        C520   1.407       .  A
C511       C2144   1.404       .  A
C512        C513   1.399       .  A
C512       C2143   1.404       .  A
C512        H523   1.084       .  S
C513       C2146   1.403       .  A
C513        H524   1.083       .  S
C514        C515   1.407       .  A
C514       C2145   1.404       .  A
C515        C516   1.408   1_556  A
C515       H2157   1.084       .  S
C516        C517   1.409       .  A
C517        H526   1.084       .  S
C518        C519   1.408       .  A
C518        H527   1.084       .  S
C519        C520   1.409   1_554  A
C520        H528   1.084       .  S
H525       C2147   1.084       .  S
C529        C530   1.399       .  A
C529        C534   1.404       .  A
C529        H545   1.084       .  S
C530        C531   1.403       .  A
C530        H546   1.084       .  S
C531        C541   1.404       .  A
C531        C532   1.412       .  A
C532        C538   1.410   1_554  A
C532        C533   1.412       .  A
C533        C535   1.412   1_554  A
C533        C534   1.410       .  A
C534        C542   1.401       .  A
C535        C544   1.404       .  A
C535       C2168   1.403       .  A
C536        C537   1.400       .  A
C536       C2167   1.403       .  A
C536        H547   1.083       .  S
C537       C2170   1.404       .  A
C537        H548   1.084       .  S
C538       C2169   1.404       .  A
C538       C2171   1.401       .  A
C539       C2170   1.402       .  A
C539       C2172   1.409       .  A
C539        H549   1.084       .  S
C540        C541   1.407       .  A
C540       C2171   1.409   1_554  A
C541        H550   1.084       .  S
C542        C543   1.409       .  A
C542        H551   1.084       .  S
C543        C544   1.407   1_554  A
C544        H552   1.084       .  S
C553        C554   1.398       .  A
C553        C558   1.403       .  A
C553        H569   1.084       .  S
C554        C555   1.403       .  A
C554        H570   1.084       .  S
C555        C565   1.401       .  A
C555        C556   1.412       .  A
C556        C562   1.411   1_554  A
C556        C557   1.410       .  A
C557        C559   1.412   1_554  A
C557        C558   1.412       .  A
C558        C566   1.401       .  A
C559        C568   1.402       .  A
C559       C2192   1.403       .  A
C560        C561   1.399       .  A
C560       C2191   1.403       .  A
C560        H571   1.084       .  S
C561       C2194   1.403       .  A
C561        H572   1.084       .  S
C562        C563   1.401       .  A
C562       C2193   1.403       .  A
C563        C564   1.405   1_556  A
C563       H2205   1.084       .  S
C564        C565   1.403       .  A
C565        H574   1.084       .  S
C566        C567   1.404       .  A
C566        H575   1.084       .  S
C567        C568   1.405   1_554  A
C568        H576   1.084       .  S
H573       C2195   1.084       .  S
C577        C578   1.399       .  A
C577        C582   1.404       .  A
C577        H593   1.084       .  S
C578        C579   1.403       .  A
C578        H594   1.084       .  S
C579        C589   1.403       .  A
C579        C580   1.413       .  A
C580        C586   1.412       .  A
C580        C581   1.413       .  A
C581        C583   1.411       .  A
C581        C582   1.411       .  A
C582        C590   1.403       .  A
C583        C592   1.405       .  A
C583        C584   1.404       .  A
C584        C585   1.400       .  A
C584        H595   1.083       .  S
C585        C586   1.403       .  A
C585        H596   1.084       .  S
C586        C587   1.404       .  A
C587        C588   1.404       .  A
C587        H597   1.084       .  S
C588        C589   1.403       .  A
C589        H598   1.084       .  S
C590        C591   1.409       .  A
C590        H599   1.084       .  S
C591        C592   1.409       .  A
C592        H600   1.084       .  S
C601        C602   1.398       .  A
C601        C606   1.403       .  A
C601        H617   1.084       .  S
C602        C603   1.403       .  A
C602        H618   1.084       .  S
C603        C613   1.403       .  A
C603        C604   1.413       .  A
C604        C610   1.409       .  A
C604        C605   1.409       .  A
C605        C607   1.414       .  A
C605        C606   1.411       .  A
C606        C614   1.399       .  A
C607        C616   1.401       .  A
C607        C608   1.402       .  A
C608        C609   1.397       .  A
C608        H619   1.084       .  S
C609        C610   1.403       .  A
C609        H620   1.084       .  S
C610        C611   1.398       .  A
C611        C612   1.407       .  A
C611        H621   1.084       .  S
C612        C613   1.406       .  A
C613        H622   1.084       .  S
C614        C615   1.402       .  A
C614        H623   1.085       .  S
C615        C616   1.401       .  A
C616        H624   1.084       .  S
C625        C626   1.398       .  A
C625        C630   1.402       .  A
C625        H641   1.084       .  S
C626        C627   1.404       .  A
C626        H642   1.084       .  S
C627        C637   1.400       .  A
C627       C2260   1.409       .  A
C628        C634   1.413       .  A
C628        C629   1.414       .  A
C628       C2259   1.409       .  A
C629        C631   1.411       .  A
C629       C2262   1.414       .  A
C630        C638   1.403       .  A
C630       C2261   1.414       .  A
C631        C640   1.404       .  A
C631        C632   1.404       .  A
C632        C633   1.400       .  A
C632        H643   1.083       .  S
C633        C634   1.403       .  A
C633        H644   1.084       .  S
C634        C635   1.407       .  A
C635       C2268   1.405       .  A
C635        H645   1.083       .  S
C636        C637   1.410       .  A
C636       C2267   1.406       .  A
C637        H646   1.084       .  S
C638       C2271   1.402       .  A
C638        H647   1.085       .  S
C639        C640   1.404       .  A
C639       C2270   1.405       .  A
C640        H648   1.085       .  S
C649        C650   1.395       .  A
C649        C654   1.401       .  A
C649        H665   1.084       .  S
C650        C651   1.403       .  A
C650        H666   1.084       .  S
C651        C661   1.398       .  A
C651        C652   1.409       .  A
C652        C658   1.409       .  A
C652        C653   1.408       .  A
C653        C655   1.412       .  A
C653        C654   1.412       .  A
C654        C662   1.397       .  A
C655        C664   1.401       .  A
C655        C656   1.403       .  A
C656        C657   1.399       .  A
C656        H667   1.084       .  S
C657        C658   1.404       .  A
C657        H668   1.084       .  S
C658        C659   1.401       .  A
C659        C660   1.411       .  A
C659        H669   1.084       .  S
C660        C661   1.411       .  A
C661        H670   1.076       .  S
C662        C663   1.401       .  A
C662        H671   1.085       .  S
C663        C664   1.403       .  A
C664        H672   1.084       .  S
C673        C674   1.402       .  A
C673        C678   1.404       .  A
C673        H689   1.083       .  S
C674        C675   1.404       .  A
C674        H690   1.083       .  S
C675        C685   1.409       .  A
C675        C676   1.414       .  A
C676        C682   1.410       .  A
C676        C677   1.413       .  A
C677        C679   1.413       .  A
C677        C678   1.411       .  A
C678        C686   1.406       .  A
C679        C688   1.402       .  A
C679        C680   1.403       .  A
C680        C681   1.398       .  A
C680        H691   1.084       .  S
C681        C682   1.404       .  A
C681        H692   1.084       .  S
C682        C683   1.400       .  A
C683        C684   1.408       .  A
C683        H693   1.085       .  S
C684        C685   1.405       .  A
C685        H694   1.084       .  S
C686        C687   1.407       .  A
C686        H695   1.084       .  S
C687        C688   1.404       .  A
C688        H696   1.084       .  S
C697        C698   1.400       .  A
C697        C702   1.403       .  A
C697        H713   1.083       .  S
C698        C699   1.404       .  A
C698        H714   1.084       .  S
C699        C709   1.404       .  A
C699        C700   1.411       .  A
C700        C706   1.411       .  A
C700        C701   1.414       .  A
C701        C703   1.412       .  A
C701        C702   1.413       .  A
C702        C710   1.405       .  A
C703        C712   1.404       .  A
C703        C704   1.404       .  A
C704        C705   1.400       .  A
C704        H715   1.084       .  S
C705        C706   1.404       .  A
C705        H716   1.084       .  S
C706        C707   1.404       .  A
C707        C708   1.409       .  A
C707        H717   1.084       .  S
C708        C709   1.408       .  A
C709        H718   1.084       .  S
C710        C711   1.404       .  A
C710        H719   1.084       .  S
C711        C712   1.405       .  A
C712        H720   1.084       .  S
C721        C722   1.400       .  A
C721        C726   1.404       .  A
C721        H737   1.084       .  S
C722        C723   1.403       .  A
C722        H738   1.084       .  S
C723        C733   1.402       .  A
C723        C724   1.413       .  A
C724        C730   1.413       .  A
C724        C725   1.409       .  A
C725        C727   1.411       .  A
C725        C726   1.412       .  A
C726        C734   1.404       .  A
C727        C736   1.398       .  A
C727        C728   1.402       .  A
C728        C729   1.396       .  A
C728        H739   1.084       .  S
C729        C730   1.402       .  A
C729        H740   1.084       .  S
C730        C731   1.398       .  A
C731        C732   1.400       .  A
C731        H741   1.085       .  S
C732        C733   1.403       .  A
C733        H742   1.084       .  S
C734        C735   1.408       .  A
C734        H743   1.084       .  S
C735        C736   1.405       .  A
C736        H744   1.084       .  S
C745        C746   1.399       .  A
C745        C750   1.404       .  A
C745        H761   1.084       .  S
C746        C747   1.403       .  A
C746        H762   1.084       .  S
C747        C757   1.404       .  A
C747        C748   1.414       .  A
C748        C754   1.411   1_554  A
C748        C749   1.413       .  A
C749        C751   1.413   1_554  A
C749        C750   1.410       .  A
C750        C758   1.401       .  A
C751        C760   1.408       .  A
C751        C752   1.404       .  A
C752        C753   1.401       .  A
C752        H763   1.083       .  S
C753        C754   1.404       .  A
C753        H764   1.084       .  S
C754        C755   1.404       .  A
C755        C756   1.404   1_556  A
C755        H765   1.085       .  S
C756        C757   1.402       .  A
C757        H766   1.085       .  S
C758        C759   1.407       .  A
C758        H767   1.084       .  S
C759        C760   1.407   1_554  A
C760        H768   1.084       .  S
C769        C770   1.397       .  A
C769        C774   1.403       .  A
C769        H785   1.084       .  S
C770        C771   1.402       .  A
C770        H786   1.084       .  S
C771        C781   1.399       .  A
C771        C772   1.412       .  A
C772        C778   1.413       .  A
C772        C773   1.409       .  A
C773        C775   1.409       .  A
C773        C774   1.410       .  A
C774        C782   1.401       .  A
C775        C784   1.399       .  A
C775        C776   1.404       .  A
C776        C777   1.398       .  A
C776        H787   1.084       .  S
C777        C778   1.403       .  A
C777        H788   1.084       .  S
C778        C779   1.402       .  A
C779        C780   1.402       .  A
C779        H789   1.084       .  S
C780        C781   1.402       .  A
C781        H790   1.085       .  S
C782        C783   1.410       .  A
C782        H791   1.082       .  S
C783        C784   1.411       .  A
C784        H792   1.083       .  S
C793        C794   1.404       .  A
C793        C798   1.405       .  A
C793        H809   1.083       .  S
C794        C795   1.405       .  A
C794        H810   1.083       .  S
C795        C805   1.411       .  A
C795        C796   1.412       .  A
C796        C802   1.412       .  A
C796        C797   1.417       .  A
C797        C799   1.410       .  A
C797        C798   1.414       .  A
C798        C806   1.413       .  A
C799        C808   1.402       .  A
C799        C800   1.404       .  A
C800        C801   1.398       .  A
C800        H811   1.084       .  S
C801        C802   1.403       .  A
C801        H812   1.084       .  S
C802        C803   1.404       .  A
C803        C804   1.405       .  A
C803        H813   1.084       .  S
C804        C805   1.409       .  A
C805        H814   1.084       .  S
C806        C807   1.407       .  A
C806        H815   1.084       .  S
C807        C808   1.407       .  A
C808        H816   1.085       .  S
C817        C818   1.399       .  A
C817        C822   1.404       .  A
C817        H833   1.084       .  S
C818        C819   1.403       .  A
C818        H834   1.084       .  S
C819        C829   1.403       .  A
C819        C820   1.412       .  A
C820        C826   1.413       .  A
C820        C821   1.414       .  A
C821        C823   1.412       .  A
C821        C822   1.411       .  A
C822        C830   1.404       .  A
C823        C832   1.408       .  A
C823        C824   1.405       .  A
C824        C825   1.402       .  A
C824        H835   1.083       .  S
C825        C826   1.404       .  A
C825        H836   1.083       .  S
C826        C827   1.407       .  A
C827        C828   1.405       .  A
C827        H837   1.084       .  S
C828        C829   1.403       .  A
C829        H838   1.084       .  S
C830        C831   1.408       .  A
C830        H839   1.084       .  S
C831        C832   1.409       .  A
C832        H840   1.084       .  S
C841        C842   1.398       .  A
C841        C846   1.403       .  A
C841        H857   1.084       .  S
C842        C843   1.402       .  A
C842        H858   1.084       .  S
C843        C853   1.400       .  A
C843        C844   1.413       .  A
C844        C850   1.412       .  A
C844        C845   1.409       .  A
C845        C847   1.412       .  A
C845        C846   1.411       .  A
C846        C854   1.400       .  A
C847        C856   1.401       .  A
C847        C848   1.403       .  A
C848        C849   1.398       .  A
C848        H859   1.084       .  S
C849        C850   1.403       .  A
C849        H860   1.084       .  S
C850        C851   1.400       .  A
C851        C852   1.402       .  A
C851        H861   1.084       .  S
C852        C853   1.401       .  A
C853        H862   1.084       .  S
C854        C855   1.406       .  A
C854        H863   1.084       .  S
C855        C856   1.406       .  A
C856        H864   1.084       .  S
C865        C866   1.395       .  A
C865        C870   1.402       .  A
C865        H881   1.084       .  S
C866        C867   1.402       .  A
C866        H882   1.084       .  S
C867        C877   1.400       .  A
C867        C868   1.413   1_554  A
C868        C874   1.410       .  A
C868        C869   1.411       .  A
C869        C871   1.415       .  A
C869        C870   1.409   1_556  A
C870        C878   1.393       .  A
C871        C880   1.410       .  A
C871        C872   1.404       .  A
C872       C2505   1.402       .  A
C872       H2515   1.083       .  S
C873       C2504   1.405       .  A
C873       C2506   1.406       .  A
C873        H884   1.083       .  S
C874        C875   1.406       .  A
C874       C2505   1.406       .  A
C875        C876   1.411   1_556  A
C875       H2517   1.084       .  S
C876        C877   1.405       .  A
C877        H886   1.084       .  S
C878        C879   1.405   1_554  A
C878        H887   1.085       .  S
C879        C880   1.404       .  A
C880        H888   1.084       .  S
H883       C2504   1.083       .  S
H885       C2507   1.084       .  S
C889        C890   1.399       .  A
C889        C894   1.403       .  A
C889        H905   1.084       .  S
C890        C891   1.403       .  A
C890        H906   1.084       .  S
C891        C901   1.404       .  A
C891        C892   1.413       .  A
C892        C898   1.412       .  A
C892        C893   1.415       .  A
C893        C895   1.413       .  A
C893        C894   1.412       .  A
C894        C902   1.403       .  A
C895        C904   1.408       .  A
C895        C896   1.405       .  A
C896        C897   1.402       .  A
C896        H907   1.084   1_554  S
C897        C898   1.405       .  A
C897        H908   1.084   1_554  S
C898        C899   1.407       .  A
C899        C900   1.406       .  A
C899        H909   1.084       .  S
C900        C901   1.404       .  A
C901        H910   1.084       .  S
C902        C903   1.404       .  A
C902        H911   1.085       .  S
C903       C1999   1.479       .  S
C903        C904   1.405       .  A
C904        H912   1.084       .  S
C913        C914   1.396       .  A
C913        C918   1.401       .  A
C913        H929   1.084       .  S
C914        C915   1.405       .  A
C914        H930   1.084       .  S
C915        C925   1.397       .  A
C915        C916   1.407       .  A
C916        C922   1.411       .  A
C916        C917   1.410       .  A
C917        C919   1.411       .  A
C917        C918   1.414       .  A
C918        C926   1.400       .  A
C919        C928   1.402       .  A
C919        C920   1.404       .  A
C920        C921   1.400       .  A
C920        H931   1.083       .  S
C921        C922   1.404       .  A
C921        H932   1.083       .  S
C922        C923   1.405       .  A
C923        C924   1.410       .  A
C923        H933   1.084       .  S
C924        C925   1.415       .  A
C925        H934   1.075       .  S
C926        C927   1.400       .  A
C926        H935   1.084       .  S
C927        C928   1.404       .  A
C928        H936   1.084       .  S
C937        C938   1.399       .  A
C937        C942   1.404       .  A
C937        H953   1.084       .  S
C938        C939   1.403       .  A
C938        H954   1.084       .  S
C939        C949   1.404       .  A
C939        C940   1.412       .  A
C940        C946   1.412       .  A
C940        C941   1.413       .  A
C941        C943   1.413       .  A
C941        C942   1.412       .  A
C942        C950   1.403       .  A
C943        C952   1.406       .  A
C943        C944   1.403       .  A
C944        C945   1.400       .  A
C944        H955   1.084       .  S
C945        C946   1.404       .  A
C945        H956   1.083       .  S
C946        C947   1.405       .  A
C947        C948   1.406       .  A
C947        H957   1.084       .  S
C948        C949   1.405       .  A
C949        H958   1.084       .  S
C950        C951   1.405       .  A
C950        H959   1.085       .  S
C951        C952   1.402       .  A
C952        H960   1.084       .  S
C961        C962   1.398       .  A
C961        C966   1.403       .  A
C961        H977   1.084       .  S
C962        C963   1.402       .  A
C962        H978   1.084       .  S
C963        C973   1.402       .  A
C963        C964   1.413       .  A
C964        C970   1.412       .  A
C964        C965   1.412       .  A
C965        C967   1.412       .  A
C965        C966   1.410       .  A
C966        C974   1.400       .  A
C967        C976   1.406       .  A
C967        C968   1.404       .  A
C968        C969   1.400       .  A
C968        H979   1.083       .  S
C969        C970   1.403       .  A
C969        H980   1.084       .  S
C970        C971   1.403       .  A
C971        C972   1.404       .  A
C971        H981   1.084       .  S
C972        C973   1.402       .  A
C973        H982   1.084       .  S
C974        C975   1.408       .  A
C974        H983   1.084       .  S
C975        C976   1.408       .  A
C976        H984   1.084       .  S
C985        C986   1.396       .  A
C985        C990   1.401       .  A
C985       H1001   1.084       .  S
C986        C987   1.403       .  A
C986       H1002   1.084       .  S
C987        C997   1.398       .  A
C987        C988   1.411       .  A
C988        C994   1.411       .  A
C988        C989   1.409       .  A
C989        C991   1.413       .  A
C989        C990   1.412       .  A
C990        C998   1.397       .  A
C991       C1000   1.402       .  A
C991        C992   1.403       .  A
C992        C993   1.399       .  A
C992       H1003   1.084       .  S
C993        C994   1.404       .  A
C993       H1004   1.084       .  S
C994        C995   1.403       .  A
C995        C996   1.408       .  A
C995       H1005   1.084       .  S
C996        C997   1.406       .  A
C997       H1006   1.084       .  S
C998        C999   1.400       .  A
C998       H1007   1.085       .  S
C999       C1000   1.403       .  A
C1000      H1008   1.084       .  S
C1009      C1010   1.397       .  A
C1009      C1014   1.403       .  A
C1009      H1025   1.084       .  S
C1010      C1011   1.403       .  A
C1010      H1026   1.084       .  S
C1011      C1021   1.401       .  A
C1011      C2644   1.412       .  A
C1012      C1018   1.410       .  A
C1012      C1013   1.411       .  A
C1012      C2643   1.412   1_554  A
C1013      C1015   1.415       .  A
C1013      C2646   1.409   1_554  A
C1014      C1022   1.399       .  A
C1014      C2645   1.410       .  A
C1015      C1024   1.410       .  A
C1015      C1016   1.404       .  A
C1016      C1017   1.403       .  A
C1016      H1027   1.083       .  S
C1017      C1018   1.406       .  A
C1017      H1028   1.083       .  S
C1018      C1019   1.407       .  A
C1019      C1020   1.410       .  A
C1019      H1029   1.084       .  S
C1020      C2653   1.404   1_554  A
C1021      C2652   1.406       .  A
C1021      H1030   1.084       .  S
C1022      C1023   1.406       .  A
C1022      H1031   1.085       .  S
C1023      C2656   1.405       .  A
C1024      C2655   1.404       .  A
C1024      H1032   1.084       .  S
C1033      C1034   1.397       .  A
C1033      C1038   1.404       .  A
C1033      H1049   1.084       .  S
C1034      C1035   1.402       .  A
C1034      H1050   1.084       .  S
C1035      C1045   1.399       .  A
C1035      C1036   1.412       .  A
C1036      C1042   1.412       .  A
C1036      C1037   1.409       .  A
C1037      C1039   1.410       .  A
C1037      C1038   1.409       .  A
C1038      C1046   1.400       .  A
C1039      C1048   1.400       .  A
C1039      C1040   1.403       .  A
C1040      C1041   1.398       .  A
C1040      H1051   1.084       .  S
C1041      C1042   1.402       .  A
C1041      H1052   1.084       .  S
C1042      C1043   1.400       .  A
C1043      C1044   1.401       .  A
C1043      H1053   1.084       .  S
C1044      C1045   1.401       .  A
C1045      H1054   1.085       .  S
C1046      C1047   1.412       .  A
C1046      H1055   1.079       .  S
C1047      C1048   1.410       .  A
C1048      H1056   1.084       .  S
C1057      C1058   1.397       .  A
C1057      C1062   1.402       .  A
C1057      H1073   1.084       .  S
C1058      C1059   1.403       .  A
C1058      H1074   1.084       .  S
C1059      C1069   1.398       .  A
C1059      C1060   1.409       .  A
C1060      C1066   1.415       .  A
C1060      C1061   1.412       .  A
C1061      C1063   1.411       .  A
C1061      C1062   1.413       .  A
C1062      C1070   1.401       .  A
C1063      C1072   1.404       .  A
C1063      C1064   1.404       .  A
C1064      C1065   1.401       .  A
C1064      H1075   1.083       .  S
C1065      C1066   1.404       .  A
C1065      H1076   1.083       .  S
C1066      C1067   1.409       .  A
C1067      C1068   1.404       .  A
C1067      H1077   1.084       .  S
C1068      C1069   1.407       .  A
C1069      H1078   1.085       .  S
C1070      C1071   1.404       .  A
C1070      H1079   1.085       .  S
C1071      C1072   1.406       .  A
C1072      H1080   1.084       .  S
C1081      C1082   1.400       .  A
C1081      C1086   1.404       .  A
C1081      H1097   1.083       .  S
C1082      C1083   1.403       .  A
C1082      H1098   1.084       .  S
C1083      C1093   1.404       .  A
C1083      C1084   1.412       .  A
C1084      C1090   1.412       .  A
C1084      C1085   1.414       .  A
C1085      C1087   1.412       .  A
C1085      C1086   1.412       .  A
C1086      C1094   1.405       .  A
C1087      C1096   1.406       .  A
C1087      C1088   1.404       .  A
C1088      C1089   1.400       .  A
C1088      H1099   1.083       .  S
C1089      C1090   1.404       .  A
C1089      H1100   1.084       .  S
C1090      C1091   1.405       .  A
C1091      C1092   1.407       .  A
C1091      H1101   1.084       .  S
C1092      C1093   1.405       .  A
C1093      H1102   1.084       .  S
C1094      C1095   1.407       .  A
C1094      H1103   1.084       .  S
C1095      C1096   1.406       .  A
C1096      H1104   1.084       .  S
C1105      C1106   1.398       .  A
C1105      C1110   1.403       .  A
C1105      H1121   1.084       .  S
C1106      C1107   1.402       .  A
C1106      H1122   1.084       .  S
C1107      C1117   1.402       .  A
C1107      C1108   1.413       .  A
C1108      C1114   1.412       .  A
C1108      C1109   1.411       .  A
C1109      C1111   1.412       .  A
C1109      C1110   1.411       .  A
C1110      C1118   1.401       .  A
C1111      C1120   1.403       .  A
C1111      C1112   1.404       .  A
C1112      C1113   1.399       .  A
C1112      H1123   1.084       .  S
C1113      C1114   1.403       .  A
C1113      H1124   1.084       .  S
C1114      C1115   1.401       .  A
C1115      C1116   1.403       .  A
C1115      H1125   1.084       .  S
C1116      C1117   1.402       .  A
C1117      H1126   1.084       .  S
C1118      C1119   1.407       .  A
C1118      H1127   1.084       .  S
C1119      C1120   1.407       .  A
C1120      H1128   1.084       .  S
C1129      C1130   1.402       .  A
C1129      C1134   1.405       .  A
C1129      H1145   1.083       .  S
C1130      C1131   1.405       .  A
C1130      H1146   1.083       .  S
C1131      C1141   1.409       .  A
C1131      C1132   1.412       .  A
C1132      C1133   1.413       .  A
C1132      C2770   1.408   1_554  A
C1133      C1134   1.410       .  A
C1133      C2767   1.412   1_554  A
C1134      C1142   1.407       .  A
C1135      C1144   1.404       .  A
C1135      C1136   1.403       .  A
C1135      C2765   1.413       .  A
C1136      C1137   1.398       .  A
C1136      H1147   1.084       .  S
C1137      C1138   1.404       .  A
C1137      H1148   1.084       .  S
C1138      C1139   1.399       .  A
C1138      C2764   1.409       .  A
C1139      C2772   1.409       .  A
C1139      H1149   1.084       .  S
C1140      C1141   1.410       .  A
C1140      C2771   1.411   1_554  A
C1141      H1150   1.082       .  S
C1142      C1143   1.411       .  A
C1142      H1151   1.084       .  S
C1143      C2776   1.405   1_554  A
C1144      C2775   1.406       .  A
C1144      H1152   1.084       .  S
C1153      C1154   1.402       .  A
C1153      C2790   1.404       .  A
C1153      H1169   1.083       .  S
C1154      C2787   1.405       .  A
C1154      H1170   1.084       .  S
C1155      C1156   1.408   1_556  A
C1155      C2786   1.405       .  A
C1155      C2797   1.400       .  A
C1156      C1162   1.415       .  A
C1156      C1157   1.411       .  A
C1157      C1159   1.407       .  A
C1157      C1158   1.414   1_554  A
C1158      C1166   1.408       .  A
C1158      C2785   1.403       .  A
C1159      C1168   1.397       .  A
C1159      C1160   1.404       .  A
C1160      C1161   1.397       .  A
C1160      H1171   1.084       .  S
C1161      C1162   1.401       .  A
C1161      H1172   1.084       .  S
C1162      C1163   1.404       .  A
C1163      C1164   1.402       .  A
C1163      H1173   1.084       .  S
C1164      C2797   1.411   1_554  A
C1165      C2787   1.403       .  A
C1165      C2796   1.412       .  A
C1165      H1174   1.084       .  S
C1166      C1167   1.406   1_556  A
C1166      H1175   1.083       .  S
C1167      C1168   1.412       .  A
C1168      H1176   1.082       .  S
C1177      C1178   1.398       .  A
C1177      C1182   1.404       .  A
C1177      H1193   1.084       .  S
C1178      C1179   1.402       .  A
C1178      H1194   1.084       .  S
C1179      C1189   1.401       .  A
C1179      C1180   1.413       .  A
C1180      C1186   1.411       .  A
C1180      C1181   1.408       .  A
C1181      C1183   1.410       .  A
C1181      C1182   1.409       .  A
C1182      C1190   1.400       .  A
C1183      C1192   1.399       .  A
C1183      C1184   1.403       .  A
C1184      C1185   1.397       .  A
C1184      H1195   1.084       .  S
C1185      C1186   1.403       .  A
C1185      H1196   1.084       .  S
C1186      C1187   1.398       .  A
C1187      C1188   1.403       .  A
C1187      H1197   1.085       .  S
C1188      C1189   1.402       .  A
C1189      H1198   1.084       .  S
C1190      C1191   1.412       .  A
C1190      H1199   1.078       .  S
C1191      C1192   1.409       .  A
C1192      H1200   1.084       .  S
C1201      C1202   1.400       .  A
C1201      C1206   1.404       .  A
C1201      H1217   1.084       .  S
C1202      C1203   1.403       .  A
C1202      H1218   1.084       .  S
C1203      C1213   1.405       .  A
C1203      C1204   1.413       .  A
C1204      C1210   1.412       .  A
C1204      C1205   1.415       .  A
C1205      C1207   1.413       .  A
C1205      C1206   1.412       .  A
C1206      C1214   1.405       .  A
C1207      C1216   1.407       .  A
C1207      C1208   1.404       .  A
C1208      C1209   1.401       .  A
C1208      H1219   1.083       .  S
C1209      C1210   1.404       .  A
C1209      H1220   1.083       .  S
C1210      C1211   1.406       .  A
C1211      C1212   1.405       .  A
C1211      H1221   1.084       .  S
C1212      C1213   1.404       .  A
C1213      H1222   1.084       .  S
C1214      C1215   1.405       .  A
C1214      H1223   1.085       .  S
C1215      C1216   1.404       .  A
C1216      H1224   1.085       .  S
C1225      C1226   1.399       .  A
C1225      C1230   1.403       .  A
C1225      H1241   1.083       .  S
C1226      C1227   1.404       .  A
C1226      H1242   1.084       .  S
C1227      C1237   1.403       .  A
C1227      C1228   1.411       .  A
C1228      C1234   1.412       .  A
C1228      C1229   1.413       .  A
C1229      C1231   1.412       .  A
C1229      C1230   1.413       .  A
C1230      C1238   1.404       .  A
C1231      C1240   1.404       .  A
C1231      C1232   1.404       .  A
C1232      C1233   1.400       .  A
C1232      H1243   1.084       .  S
C1233      C1234   1.404       .  A
C1233      H1244   1.084       .  S
C1234      C1235   1.406       .  A
C1235      C1236   1.408       .  A
C1235      H1245   1.084       .  S
C1236      C1237   1.408       .  A
C1237      H1246   1.084       .  S
C1238      C1239   1.404       .  A
C1238      H1247   1.084       .  S
C1239      C1240   1.404       .  A
C1240      H1248   1.084       .  S
C1249      C1250   1.400       .  A
C1249      C1254   1.404       .  A
C1249      H1265   1.084       .  S
C1250      C1251   1.404       .  A
C1250      H1266   1.083       .  S
C1251      C1261   1.405       .  A
C1251      C1252   1.413       .  A
C1252      C1258   1.412       .  A
C1252      C1253   1.411       .  A
C1253      C1255   1.411       .  A
C1253      C1254   1.411       .  A
C1254      C1262   1.405       .  A
C1255      C1264   1.400       .  A
C1255      C1256   1.403       .  A
C1256      C1257   1.397       .  A
C1256      H1267   1.084       .  S
C1257      C1258   1.402       .  A
C1257      H1268   1.084       .  S
C1258      C1259   1.399       .  A
C1259      C1260   1.401       .  A
C1259      H1269   1.085       .  S
C1260      C1261   1.404       .  A
C1261      H1270   1.084       .  S
C1262      C1263   1.408       .  A
C1262      H1271   1.084       .  S
C1263      C1264   1.407       .  A
C1264      H1272   1.084       .  S
C1273      C1274   1.397       .  A
C1273      C1278   1.402       .  A
C1273      H1289   1.084       .  S
C1274      C1275   1.404       .  A
C1274      H1290   1.084       .  S
C1275      C1285   1.398       .  A
C1275      C1276   1.406       .  A
C1276      C1282   1.412   1_554  A
C1276      C1277   1.414       .  A
C1277      C1279   1.410   1_554  A
C1277      C1278   1.413       .  A
C1278      C1286   1.402       .  A
C1279      C1288   1.408       .  A
C1279      C2912   1.405       .  A
C1280      C1281   1.402       .  A
C1280      C2911   1.405       .  A
C1280      H1291   1.083       .  S
C1281      C2914   1.404       .  A
C1281      H1292   1.083       .  S
C1282      C1283   1.412       .  A
C1282      C2913   1.405       .  A
C1283      C1284   1.411   1_556  A
C1283      H2925   1.081       .  S
C1284      C1285   1.415       .  A
C1285      H1294   1.080       .  S
C1286      C1287   1.404       .  A
C1286      H1295   1.085       .  S
C1287      C1288   1.408   1_554  A
C1288      H2928   1.084       .  S
H1293      C2915   1.083       .  S
H1296      C2920   1.084       .  S
C1297      C1298   1.399       .  A
C1297      C1302   1.403       .  A
C1297      H1313   1.084       .  S
C1298      C1299   1.404       .  A
C1298      H1314   1.084       .  S
C1299      C1309   1.403       .  A
C1299      C1300   1.411       .  A
C1300      C1306   1.408       .  A
C1300      C1301   1.408       .  A
C1301      C1303   1.413       .  A
C1301      C1302   1.412       .  A
C1302      C1310   1.401       .  A
C1303      C1312   1.397       .  A
C1303      C1304   1.401       .  A
C1304      C1305   1.395       .  A
C1304      H1315   1.084       .  S
C1305      C1306   1.402       .  A
C1305      H1316   1.084       .  S
C1306      C1307   1.394       .  A
C1307      C1308   1.409       .  A
C1307      H1317   1.085       .  S
C1308      C1309   1.411       .  A
C1309      H1318   1.079       .  S
C1310      C1311   1.402       .  A
C1310      H1319   1.084       .  S
C1311      C1312   1.399       .  A
C1312      H1320   1.085       .  S
C1321      C1322   1.397       .  A
C1321      C1326   1.402       .  A
C1321      H1337   1.084       .  S
C1322      C1323   1.403       .  A
C1322      H1338   1.084       .  S
C1323      C1333   1.400       .  A
C1323      C1324   1.410       .  A
C1324      C1330   1.414       .  A
C1324      C1325   1.415       .  A
C1325      C1327   1.411       .  A
C1325      C1326   1.413       .  A
C1326      C1334   1.401       .  A
C1327      C1336   1.408       .  A
C1327      C1328   1.405       .  A
C1328      C1329   1.403       .  A
C1328      H1339   1.083       .  S
C1329      C1330   1.405       .  A
C1329      H1340   1.083       .  S
C1330      C1331   1.412       .  A
C1331      C1332   1.406       .  A
C1331      H1341   1.084       .  S
C1332      C1333   1.405       .  A
C1333      H1342   1.085       .  S
C1334      C1335   1.404       .  A
C1334      H1343   1.085       .  S
C1335      C1336   1.410       .  A
C1336      H1344   1.084       .  S
C1345      C1346   1.401       .  A
C1345      C1350   1.404       .  A
C1345      H1361   1.083       .  S
C1346      C1347   1.405       .  A
C1346      H1362   1.083       .  S
C1347      C1357   1.408       .  A
C1347      C1348   1.412       .  A
C1348      C1354   1.411       .  A
C1348      C1349   1.415       .  A
C1349      C1351   1.412       .  A
C1349      C1350   1.412       .  A
C1350      C1358   1.406       .  A
C1351      C1360   1.406       .  A
C1351      C1352   1.404       .  A
C1352      C1353   1.400       .  A
C1352      H1363   1.083       .  S
C1353      C1354   1.404       .  A
C1353      H1364   1.084       .  S
C1354      C1355   1.405       .  A
C1355      C1356   1.410       .  A
C1355      H1365   1.084       .  S
C1356      C1357   1.410       .  A
C1357      H1366   1.084       .  S
C1358      C1359   1.406       .  A
C1358      H1367   1.084       .  S
C1359      C1360   1.406       .  A
C1360      H1368   1.084       .  S
C1369      C1370   1.398       .  A
C1369      C1374   1.403       .  A
C1369      H1385   1.084       .  S
C1370      C1371   1.403       .  A
C1370      H1386   1.084       .  S
C1371      C1381   1.401       .  A
C1371      C1372   1.412       .  A
C1372      C1378   1.413       .  A
C1372      C1373   1.412       .  A
C1373      C1375   1.411       .  A
C1373      C1374   1.412       .  A
C1374      C1382   1.401       .  A
C1375      C1384   1.404       .  A
C1375      C1376   1.404       .  A
C1376      C1377   1.400       .  A
C1376      H1387   1.084       .  S
C1377      C1378   1.404       .  A
C1377      H1388   1.083       .  S
C1378      C1379   1.405       .  A
C1379      C1380   1.404       .  A
C1379      H1389   1.084       .  S
C1380      C1381   1.403       .  A
C1381      H1390   1.084       .  S
C1382      C1383   1.406       .  A
C1382      H1391   1.084       .  S
C1383      C1384   1.407       .  A
C1384      H1392   1.084       .  S
C1393      C1394   1.401       .  A
C1393      C1398   1.404       .  A
C1393      H1409   1.084       .  S
C1394      C1395   1.405       .  A
C1394      H1410   1.083       .  S
C1395      C1405   1.404       .  A
C1395      C3028   1.410       .  A
C1396      C1402   1.413       .  A
C1396      C1397   1.410       .  A
C1396      C3027   1.409   1_554  A
C1397      C1399   1.409       .  A
C1397      C3030   1.415   1_554  A
C1398      C1406   1.407       .  A
C1398      C3029   1.414       .  A
C1399      C1408   1.396       .  A
C1399      C1400   1.402       .  A
C1400      C1401   1.396       .  A
C1400      H1411   1.084       .  S
C1401      C1402   1.402       .  A
C1401      H1412   1.084       .  S
C1402      C1403   1.402       .  A
C1403      C1404   1.405       .  A
C1403      H1413   1.084       .  S
C1404      C3037   1.409   1_554  A
C1405      C3036   1.410       .  A
C1405      H1414   1.084       .  S
C1406      C3039   1.404       .  A
C1406      H1415   1.084       .  S
C1407      C1408   1.404       .  A
C1407      C3038   1.403   1_554  A
C1408      H1416   1.085       .  S
C1417      C1418   1.402       .  A
C1417      C1422   1.405       .  A
C1417      H1433   1.083   1_554  S
C1418      C1419   1.405       .  A
C1418      H1434   1.084       .  S
C1419      C1429   1.407       .  A
C1419      C1420   1.412       .  A
C1420      C1426   1.413       .  A
C1420      C1421   1.413       .  A
C1421      C1423   1.411       .  A
C1421      C1422   1.413       .  A
C1422      C1430   1.409   1_554  A
C1423      C1432   1.400       .  A
C1423      C1424   1.402       .  A
C1424      C1425   1.397       .  A
C1424      H1435   1.084       .  S
C1425      C1426   1.402       .  A
C1425      H1436   1.084       .  S
C1426      C1427   1.401       .  A
C1427      C1428   1.402       .  A
C1427      H1437   1.085       .  S
C1428      C1847   1.475       .  S
C1428      C1429   1.405       .  A
C1429      H3070   1.085       .  S
C1430      C1431   1.407   1_556  A
C1430      H1439   1.084       .  S
C1431      C1432   1.404       .  A
C1432      H1440   1.085       .  S
H1438      C3061   1.085       .  S
C1441      C1442   1.399       .  A
C1441      C1446   1.403       .  A
C1441      H1457   1.084       .  S
C1442      C1443   1.404       .  A
C1442      H1458   1.084       .  S
C1443      C1453   1.401       .  A
C1443      C1444   1.409       .  A
C1444      C1450   1.410       .  A
C1444      C1445   1.412       .  A
C1445      C1447   1.412       .  A
C1445      C1446   1.412       .  A
C1446      C1454   1.403       .  A
C1447      C1456   1.402       .  A
C1447      C1448   1.403       .  A
C1448      C1449   1.398       .  A
C1448      H1459   1.084       .  S
C1449      C1450   1.404       .  A
C1449      H1460   1.084       .  S
C1450      C1451   1.403       .  A
C1451      C1452   1.411       .  A
C1451      H1461   1.077       .  S
C1452      C1453   1.412       .  A
C1453      H1462   1.085       .  S
C1454      C1455   1.405       .  A
C1454      H1463   1.084       .  S
C1455      C1456   1.405       .  A
C1456      H1464   1.084       .  S
C1465      C1466   1.402       .  A
C1465      C1470   1.405       .  A
C1465      H1481   1.083       .  S
C1466      C1467   1.404       .  A
C1466      H1482   1.083       .  S
C1467      C1477   1.409       .  A
C1467      C1468   1.414       .  A
C1468      C1474   1.411       .  A
C1468      C1469   1.414       .  A
C1469      C1471   1.413       .  A
C1469      C1470   1.412       .  A
C1470      C1478   1.407       .  A
C1471      C1480   1.404       .  A
C1471      C1472   1.403       .  A
C1472      C1473   1.399       .  A
C1472      H1483   1.084       .  S
C1473      C1474   1.403       .  A
C1473      H1484   1.084       .  S
C1474      C1475   1.402       .  A
C1475      C1476   1.404       .  A
C1475      H1485   1.085       .  S
C1476      C1477   1.405       .  A
C1477      H1486   1.084       .  S
C1478      C1479   1.407       .  A
C1478      H1487   1.084       .  S
C1479      C1480   1.404       .  A
C1480      H1488   1.084       .  S
C1489      C1490   1.401       .  A
C1489      C1494   1.405       .  A
C1489      H1505   1.083       .  S
C1490      C1491   1.404       .  A
C1490      H1506   1.083       .  S
C1491      C1501   1.407       .  A
C1491      C1492   1.413       .  A
C1492      C1498   1.412       .  A
C1492      C1493   1.415       .  A
C1493      C1495   1.412       .  A
C1493      C1494   1.412       .  A
C1494      C1502   1.407       .  A
C1495      C1504   1.405       .  A
C1495      C1496   1.404       .  A
C1496      C1497   1.399       .  A
C1496      H1507   1.084       .  S
C1497      C1498   1.403       .  A
C1497      H1508   1.084       .  S
C1498      C1499   1.404       .  A
C1499      C1500   1.404       .  A
C1499      H1509   1.084       .  S
C1500      C1501   1.406       .  A
C1501      H1510   1.084       .  S
C1502      C1503   1.409       .  A
C1502      H1511   1.084       .  S
C1503      C1504   1.407       .  A
C1504      H1512   1.084       .  S
C1513      C1514   1.399       .  A
C1513      C1518   1.403       .  A
C1513      H1529   1.084       .  S
C1514      C1515   1.403       .  A
C1514      H1530   1.084       .  S
C1515      C1525   1.402       .  A
C1515      C1516   1.412       .  A
C1516      C1522   1.413       .  A
C1516      C1517   1.410       .  A
C1517      C1519   1.411       .  A
C1517      C1518   1.412       .  A
C1518      C1526   1.402       .  A
C1519      C1528   1.400       .  A
C1519      C1520   1.403       .  A
C1520      C1521   1.398       .  A
C1520      H1531   1.084       .  S
C1521      C1522   1.403       .  A
C1521      H1532   1.084       .  S
C1522      C1523   1.401       .  A
C1523      C1524   1.402       .  A
C1523      H1533   1.084       .  S
C1524      C1525   1.402       .  A
C1525      H1534   1.084       .  S
C1526      C1527   1.407       .  A
C1526      H1535   1.084       .  S
C1527      C1528   1.407       .  A
C1528      H1536   1.084       .  S
C1537      C1538   1.398       .  A
C1537      C1542   1.403       .  A
C1537      H1553   1.084       .  S
C1538      C1539   1.403       .  A
C1538      H1554   1.084       .  S
C1539      C1549   1.402       .  A
C1539      C1540   1.412       .  A
C1540      C1541   1.413       .  A
C1540      C3178   1.412       .  A
C1541      C1543   1.413       .  A
C1541      C1542   1.411       .  A
C1542      C1550   1.401       .  A
C1543      C1552   1.408   1_554  A
C1543      C3176   1.404       .  A
C1544      C1545   1.403       .  A
C1544      C3175   1.405       .  A
C1544      H1555   1.083       .  S
C1545      C1546   1.405       .  A
C1545      H1556   1.083       .  S
C1546      C1547   1.410       .  A
C1546      C3172   1.412       .  A
C1547      C3180   1.407       .  A
C1547      H1557   1.084       .  S
C1548      C1549   1.406       .  A
C1548      C3179   1.405       .  A
C1549      H1558   1.085       .  S
C1550      C1551   1.407   1_554  A
C1550      H1559   1.085       .  S
C1551      C1552   1.404       .  A
C1552      H1560   1.084       .  S
C1561      C1562   1.399       .  A
C1561      C1566   1.404       .  A
C1561      H1577   1.083       .  S
C1562      C1563   1.403       .  A
C1562      H1578   1.084       .  S
C1563      C1573   1.405       .  A
C1563      C1564   1.413       .  A
C1564      C1565   1.412       .  A
C1564      C3202   1.410   1_554  A
C1565      C1566   1.410       .  A
C1565      C3199   1.412   1_554  A
C1566      C1574   1.403       .  A
C1567      C1568   1.403       .  A
C1567      C3197   1.412       .  A
C1567      C3208   1.401       .  A
C1568      C1569   1.397       .  A
C1568      H1579   1.084       .  S
C1569      C1570   1.402       .  A
C1569      H1580   1.084       .  S
C1570      C1571   1.398       .  A
C1570      C3196   1.410       .  A
C1571      C3204   1.405       .  A
C1571      H1581   1.085       .  S
C1572      C1573   1.404       .  A
C1572      C3203   1.408   1_554  A
C1573      H1582   1.084       .  S
C1574      C1575   1.408       .  A
C1574      H1583   1.084       .  S
C1575      C1576   1.407   1_554  A
C1576      C3199   1.404       .  A
C1576      H3216   1.084       .  S
H1584      C3208   1.084       .  S
C1585      C1586   1.397       .  A
C1585      C1590   1.403       .  A
C1585      H1601   1.084       .  S
C1586      C1587   1.402       .  A
C1586      H1602   1.084       .  S
C1587      C1597   1.400       .  A
C1587      C1588   1.413       .  A
C1588      C1594   1.412       .  A
C1588      C1589   1.410       .  A
C1589      C1591   1.411       .  A
C1589      C1590   1.408       .  A
C1590      C1598   1.397       .  A
C1591      C1600   1.404       .  A
C1591      C1592   1.404       .  A
C1592      C1593   1.399       .  A
C1592      H1603   1.084       .  S
C1593      C1594   1.403       .  A
C1593      H1604   1.084       .  S
C1594      C1595   1.402       .  A
C1595      C1596   1.403       .  A
C1595      H1605   1.084       .  S
C1596      C1597   1.401       .  A
C1597      H1606   1.084       .  S
C1598      C1599   1.410       .  A
C1598      H1607   1.085       .  S
C1599      C1600   1.412       .  A
C1600      H1608   1.078       .  S
C1609      C1610   1.401       .  A
C1609      C1614   1.404       .  A
C1609      H1625   1.083       .  S
C1610      C1611   1.404       .  A
C1610      H1626   1.083       .  S
C1611      C1621   1.406       .  A
C1611      C1612   1.412       .  A
C1612      C1618   1.413       .  A
C1612      C1613   1.415       .  A
C1613      C1615   1.411       .  A
C1613      C1614   1.414       .  A
C1614      C1622   1.408       .  A
C1615      C1624   1.404       .  A
C1615      C1616   1.404       .  A
C1616      C1617   1.400       .  A
C1616      H1627   1.084       .  S
C1617      C1618   1.403       .  A
C1617      H1628   1.084       .  S
C1618      C1619   1.405       .  A
C1619      C1620   1.405       .  A
C1619      H1629   1.084       .  S
C1620      C1621   1.406       .  A
C1621      H1630   1.084       .  S
C1622      C1623   1.404       .  A
C1622      H1631   1.084       .  S
C1623      C1624   1.406       .  A
C1624      H1632   1.085       .  S
C1633      C1634   1.539       .  S
C1633      C1639   1.530   1_556  S
C1633      C1637   1.531       .  S
C1633      C3231   1.523       .  S
C1634      H1641   1.082       .  S
C1635      C1636   1.550       .  S
C1635      C3180   1.486       .  S
C1636      C1640   1.550       .  S
C1636      C1638   1.541       .  S
C1636      H1642   1.111       .  S
C1637      H1643   1.087       .  S
C1638      C3204   1.482       .  S
C1640      C3255   1.482       .  S
N1645      C1650   1.352       .  A
N1645      C1649   1.356       .  A
N1645      H1677   1.038       .  S
N1646      C1653   1.353       .  A
N1646      C1654   1.350       .  A
N1647      C1652   1.355       .  A
N1647      C1651   1.352       .  A
N1647      H1678   1.038       .  S
N1648      C1655   1.350       .  A
N1648      C1656   1.353       .  A
C1649      C1657   1.388       .  A
C1649      C1665   1.418       .  A
C1650      C1666   1.414       .  A
C1650      C1658   1.386       .  A
C1651      C1659   1.390       .  A
C1651      C1668   1.418       .  A
C1652      C1667   1.413       .  A
C1652      C1660   1.385       .  A
C1653      C1665   1.414       .  A
C1653      C1661   1.385       .  A
C1654      C1668   1.416       .  A
C1654      C1662   1.387       .  A
C1655      C1663   1.388       .  A
C1655      C1666   1.412       .  A
C1656      C1664   1.385       .  A
C1656      C1667   1.410       .  A
C1657      C1658   1.374       .  A
C1657      H1669   1.082       .  S
C1658      H1670   1.082       .  S
C1659      C1660   1.374       .  A
C1659      H1671   1.082       .  S
C1660      H1672   1.082       .  S
C1661      C1662   1.375       .  A
C1661      H1673   1.082       .  S
C1662      H1674   1.082       .  S
C1663      C1664   1.372       .  A
C1663      H1675   1.082       .  S
C1664      H1676   1.082       .  S
C1665      C3252   1.491       .  S
C1666      C3156   1.479       .  S
C1667      C3132   1.486       .  S
C1668      C3228   1.482       .  S
C1679      C1680   1.537       .  S
C1679      C1685   1.533       .  S
C1679      C1683   1.531       .  S
C1679      C3084   1.522       .  S
C1680      H1687   1.082       .  S
C1680      C1681   1.366       .  D
C1681      C3063   1.478       .  S
C1682      C1686   1.544       .  S
C1682      H1688   1.111       .  S
C1683      H1689   1.087       .  S
C1683      C1684   1.361       .  D
C1684      C3039   1.476       .  S
C1685      H1690   1.087       .  S
C1686      C3108   1.476       .  S
N1691      C1696   1.354       .  A
N1691      C1695   1.352       .  A
N1691      H1723   1.038       .  S
N1692      C1699   1.348       .  A
N1692      C1700   1.350       .  A
N1693      C1698   1.352       .  A
N1693      C1697   1.354       .  A
N1693      H1724   1.039       .  S
N1694      C1701   1.352       .  A
N1694      C1702   1.350       .  A
C1695      C1703   1.387       .  A
C1695      C1711   1.414       .  A
C1696      C1712   1.417       .  A
C1696      C1704   1.388       .  A
C1697      C1705   1.386       .  A
C1697      C1714   1.413       .  A
C1698      C1713   1.415       .  A
C1698      C1706   1.388       .  A
C1699      C1711   1.409       .  A
C1699      C1707   1.387       .  A
C1700      C1714   1.407       .  A
C1700      C1708   1.385       .  A
C1701      C1709   1.386       .  A
C1701      C1712   1.414       .  A
C1702      C1710   1.387       .  A
C1702      C1713   1.413       .  A
C1703      C1704   1.375       .  A
C1703      H1715   1.082       .  S
C1704      H1716   1.082       .  S
C1705      C1706   1.376       .  A
C1705      H1717   1.082       .  S
C1706      H1718   1.082       .  S
C1707      C1708   1.371       .  A
C1707      H1719   1.082       .  S
C1708      H1720   1.082       .  S
C1709      C1710   1.374       .  A
C1709      H1721   1.082       .  S
C1710      H1722   1.082       .  S
C1711      C3087   1.476       .  S
C1712      C2991   1.488       .  S
C1713      C3012   1.479       .  S
C1714      C3111   1.482       .  S
O1725     Ni1733   1.924       .  S
O1725      C1735   1.283       .  A
O1726      C1736   1.284       .  A
O1727     Ni1733   1.913       .  S
O1727      C1737   1.281       .  A
O1728      C1738   1.282       .  A
O1729      C1738   1.280       .  A
O1730     Ni1734   1.918       .  S
O1730      C1737   1.281       .  A
O1731      C1736   1.282       .  A
O1732     Ni1734   1.920       .  S
O1732      C1735   1.283       .  A
Ni1733    Ni1734   2.387       .  S
C1735      C2988   1.487       .  S
C1736      C3135   1.488       .  S
C1737      C3159   1.476       .  S
C1738      C3015   1.477       .  S
C1739      C1740   1.540       .  S
C1739      C1745   1.527       .  S
C1739      C1743   1.529       .  S
C1739      C2940   1.529       .  S
C1740      H1747   1.081       .  S
C1740      C1741   1.367       .  D
C1741      C3183   1.486       .  S
C1742      C1746   1.548       .  S
C1742      H1748   1.108       .  S
C1743      H1749   1.086       .  S
C1743      C1744   1.367       .  D
C1744      C2916   1.490       .  S
C1745      H1750   1.087       .  S
C1746      C2964   1.483       .  S
N1751      C1756   1.358       .  A
N1751      C1755   1.352       .  A
N1751      H1783   1.037       .  S
N1752      C1759   1.351       .  A
N1752      C1760   1.355       .  A
N1753      C1758   1.353       .  A
N1753      C1757   1.358       .  A
N1753      H1784   1.035       .  S
N1754      C1761   1.355       .  A
N1754      C1762   1.351       .  A
C1755      C1763   1.389       .  A
C1755      C1771   1.419       .  A
C1756      C1772   1.418       .  A
C1756      C1764   1.386       .  A
C1757      C1765   1.388       .  A
C1757      C1774   1.424       .  A
C1758      C1773   1.420       .  A
C1758      C1766   1.387       .  A
C1759      C1771   1.417       .  A
C1759      C1767   1.387       .  A
C1760      C1774   1.419       .  A
C1760      C1768   1.386       .  A
C1761      C1769   1.385       .  A
C1761      C1772   1.415       .  A
C1762      C1770   1.389       .  A
C1762      C1773   1.418       .  A
C1763      C1764   1.374       .  A
C1763      H1775   1.082       .  S
C1764      H1776   1.082       .  S
C1765      C1766   1.375       .  A
C1765      H1777   1.081       .  S
C1766      H1778   1.082       .  S
C1767      C1768   1.372       .  A
C1767      H1779   1.082       .  S
C1768      H1780   1.082       .  S
C1769      C1770   1.373       .  A
C1769      H1781   1.082       .  S
C1770      H1782   1.082       .  S
C1771      C2943   1.482       .  S
C1772      C2871   1.496       .  S
C1773      C2892   1.480       .  S
C1774      C2967   1.501       .  S
C1785      C1786   1.537       .  S
C1785      C1789   1.536       .  S
C1785      C2823   1.525       .  S
C1786      H1793   1.080       .  S
C1787      C1788   1.545       .  S
C1787      C2796   1.488       .  S
C1788      C1792   1.546       .  S
C1788      C1790   1.544       .  S
C1788      H1794   1.110       .  S
C1789      H1795   1.085       .  S
C1790      C2772   1.486       .  S
C1791      H1796   1.087       .  S
C1791      C1792   1.361       .  D
C1792      C2847   1.478       .  S
N1797      C1802   1.356       .  A
N1797      C1801   1.352       .  A
N1797      H1829   1.034       .  S
N1798      C1805   1.350       .  A
N1798      C1806   1.354       .  A
N1799      C1804   1.351       .  A
N1799      C1803   1.355       .  A
N1799      H1830   1.035       .  S
N1800      C1807   1.353       .  A
N1800      C1808   1.351       .  A
C1801      C1809   1.388       .  A
C1801      C1817   1.419       .  A
C1802      C1818   1.419       .  A
C1802      C1810   1.387       .  A
C1803      C1811   1.386       .  A
C1803      C1820   1.415       .  A
C1804      C1819   1.416       .  A
C1804      C1812   1.389       .  A
C1805      C1817   1.417       .  A
C1805      C1813   1.389       .  A
C1806      C1820   1.413       .  A
C1806      C1814   1.384       .  A
C1807      C1815   1.385       .  A
C1807      C1818   1.414       .  A
C1808      C1816   1.388       .  A
C1808      C1819   1.415       .  A
C1809      C1810   1.376       .  A
C1809      H1821   1.082       .  S
C1810      H1822   1.082       .  S
C1811      C1812   1.372       .  A
C1811      H1823   1.083       .  S
C1812      H1824   1.082       .  S
C1813      C1814   1.372       .  A
C1813      H1825   1.082       .  S
C1814      H1826   1.082       .  S
C1815      C1816   1.372       .  A
C1815      H1827   1.082       .  S
C1816      H1828   1.082       .  S
C1817      C2748   1.479       .  S
C1818      C2844   1.490       .  S
C1819      C2820   1.478       .  S
C1820      C2724   1.489       .  S
O1831     Ni1839   1.929       .  S
O1831      C1841   1.284       .  A
O1832      C1842   1.283       .  A
O1833     Ni1839   1.917       .  S
O1833      C1843   1.281       .  A
O1834      C1844   1.282       .  A
O1835      C1844   1.281       .  A
O1836     Ni1840   1.917       .  S
O1836      C1843   1.282       .  A
O1837      C1842   1.282       .  A
O1838     Ni1840   1.923       .  S
O1838      C1841   1.283       .  A
Ni1839    Ni1840   2.386       .  S
C1841      C2868   1.493       .  S
C1842      C2727   1.486       .  S
C1843      C2751   1.482       .  S
C1844      C2895   1.480       .  S
C1845      C1846   1.536       .  S
C1845      C1851   1.525   1_556  S
C1845      C1849   1.536       .  S
C1845      C2679   1.526       .  S
C1846      H1853   1.087       .  S
C1846      C1847   1.366   1_556  D
C1848      C1852   1.549       .  S
C1848      H1854   1.111       .  S
C1849      H1855   1.080       .  S
C1849      C1850   1.365   1_556  D
C1850      C2655   1.479       .  S
C1851      H1856   1.087       .  S
C1852      C2700   1.482       .  S
N1857      C1862   1.351       .  A
N1857      C1861   1.356       .  A
N1857      H1889   1.040       .  S
N1858      C1865   1.353       .  A
N1858      C1866   1.349       .  A
N1859      C1864   1.356       .  A
N1859      C1863   1.352       .  A
N1859      H1890   1.039       .  S
N1860      C1867   1.349       .  A
N1860      C1868   1.353       .  A
C1861      C1869   1.386       .  A
C1861      C1877   1.415       .  A
C1862      C1878   1.414       .  A
C1862      C1870   1.388       .  A
C1863      C1871   1.388       .  A
C1863      C1880   1.416       .  A
C1864      C1879   1.417       .  A
C1864      C1872   1.386       .  A
C1865      C1877   1.413       .  A
C1865      C1873   1.385       .  A
C1866      C1880   1.412       .  A
C1866      C1874   1.388       .  A
C1867      C1875   1.387       .  A
C1867      C1878   1.412       .  A
C1868      C1876   1.385       .  A
C1868      C1879   1.412       .  A
C1869      C1870   1.375       .  A
C1869      H1881   1.082       .  S
C1870      H1882   1.082       .  S
C1871      C1872   1.377       .  A
C1871      H1883   1.082       .  S
C1872      H1884   1.082       .  S
C1873      C1874   1.373       .  A
C1873      H1885   1.082       .  S
C1874      H1886   1.082       .  S
C1875      C1876   1.374       .  A
C1875      H1887   1.082       .  S
C1876      H1888   1.082       .  S
C1877      C2604   1.495       .  S
C1878      C2676   1.477       .  S
C1879      C2703   1.491       .  S
C1880      C2631   1.476       .  S
C1891      C1892   1.538       .  S
C1891      C1897   1.528       .  S
C1891      C1895   1.540       .  S
C1891      C2556   1.532       .  S
C1892      H1899   1.086       .  S
C1892      C1893   1.371       .  D
C1893      C2532   1.485       .  S
C1894      C1898   1.547       .  S
C1894      H1900   1.111       .  S
C1895      H1901   1.082       .  S
C1895      C1896   1.368       .  D
C1896      C2511   1.482       .  S
C1897      H1902   1.087       .  S
C1898      C2583   1.478       .  S
N1903      C1908   1.353       .  A
N1903      C1907   1.354       .  A
N1903      H1935   1.037       .  S
N1904      C1911   1.351       .  A
N1904      C1912   1.352       .  A
N1905      C1910   1.354       .  A
N1905      C1909   1.353       .  A
N1905      H1936   1.038       .  S
N1906      C1913   1.352       .  A
N1906      C1914   1.352       .  A
C1907      C1915   1.387       .  A
C1907      C1923   1.416       .  A
C1908      C1924   1.418       .  A
C1908      C1916   1.388       .  A
C1909      C1917   1.387       .  A
C1909      C1926   1.416       .  A
C1910      C1925   1.416       .  A
C1910      C1918   1.387       .  A
C1911      C1923   1.413       .  A
C1911      C1919   1.386       .  A
C1912      C1926   1.413       .  A
C1912      C1920   1.386       .  A
C1913      C1921   1.386       .  A
C1913      C1924   1.413       .  A
C1914      C1922   1.386       .  A
C1914      C1925   1.414       .  A
C1915      C1916   1.376       .  A
C1915      H1927   1.082       .  S
C1916      H1928   1.082       .  S
C1917      C1918   1.377       .  A
C1917      H1929   1.082       .  S
C1918      H1930   1.082       .  S
C1919      C1920   1.373       .  A
C1919      H1931   1.082       .  S
C1920      H1932   1.082       .  S
C1921      C1922   1.374       .  A
C1921      H1933   1.082       .  S
C1922      H1934   1.082       .  S
C1923      C2484   1.483       .  S
C1924      C2580   1.487       .  S
C1925      C2559   1.485       .  S
C1926      C2460   1.486       .  S
O1937     Ni1945   1.926       .  S
O1937      C1947   1.284       .  A
O1938      C1948   1.284       .  A
O1939     Ni1945   1.914       .  S
O1939      C1949   1.281       .  A
O1940      C1950   1.282       .  A
O1941      C1950   1.282       .  A
O1942     Ni1946   1.909       .  S
O1942      C1949   1.281       .  A
O1943      C1948   1.281       .  A
O1944     Ni1946   1.916       .  S
O1944      C1947   1.281       .  A
Ni1945    Ni1946   2.387       .  S
C1947      C2463   1.482       .  S
C1948      C2607   1.481       .  S
C1949      C2628   1.477       .  S
C1950      C2487   1.482       .  S
C1951      C1952   1.533       .  S
C1951      C1957   1.526       .  S
C1951      C1955   1.527       .  S
C1951      C2415   1.523       .  S
C1952      H1959   1.079       .  S
C1952      C1953   1.372       .  D
C1953      C2799   1.501       .  S
C1954      C1958   1.550       .  S
C1954      H1960   1.109       .  S
C1955      H1961   1.086       .  S
C1955      C1956   1.365       .  D
C1956      C2391   1.494       .  S
C1957      H1962   1.087       .  S
C1958      C2439   1.481       .  S
N1963      C1968   1.356       .  A
N1963      C1967   1.353       .  A
N1963      H1995   1.038       .  S
N1964      C1971   1.350       .  A
N1964      C1972   1.353       .  A
N1965      C1970   1.351       .  A
N1965      C1969   1.356       .  A
N1965      H1996   1.036       .  S
N1966      C1973   1.353       .  A
N1966      C1974   1.351       .  A
C1967      C1975   1.389       .  A
C1967      C1983   1.419       .  A
C1968      C1984   1.416       .  A
C1968      C1976   1.386       .  A
C1969      C1977   1.386       .  A
C1969      C1986   1.417       .  A
C1970      C1985   1.417       .  A
C1970      C1978   1.389       .  A
C1971      C1983   1.415       .  A
C1971      C1979   1.388       .  A
C1972      C1986   1.412       .  A
C1972      C1980   1.385       .  A
C1973      C1981   1.386       .  A
C1973      C1984   1.413       .  A
C1974      C1982   1.388       .  A
C1974      C1985   1.415       .  A
C1975      C1976   1.373       .  A
C1975      H1987   1.082       .  S
C1976      H1988   1.082       .  S
C1977      C1978   1.375       .  A
C1977      H1989   1.082       .  S
C1978      H1990   1.082       .  S
C1979      C1980   1.371       .  A
C1979      H1991   1.082       .  S
C1980      H1992   1.082       .  S
C1981      C1982   1.373       .  A
C1981      H1993   1.082       .  S
C1982      H1994   1.082       .  S
C1983      C2412   1.484       .  S
C1984      C2343   1.489       .  S
C1985      C2364   1.477       .  S
C1986      C2436   1.491       .  S
C1997      C1998   1.532       .  S
C1997      C2003   1.531   1_556  S
C1997      C2001   1.539       .  S
C1997      C2292   1.528       .  S
C1998      H2005   1.087       .  S
C1998      C1999   1.365   1_556  D
C2000      C2004   1.546       .  S
C2000      H2006   1.110       .  S
C2001      H2007   1.079       .  S
C2001      C2002   1.367   1_556  D
C2002      C2268   1.491       .  S
C2003      H2008   1.087       .  S
C2004      C2316   1.483       .  S
N2009      C2014   1.353       .  A
N2009      C2013   1.351       .  A
N2009      H2041   1.035       .  S
N2010      C2017   1.351       .  A
N2010      C2018   1.352       .  A
N2011      C2016   1.353       .  A
N2011      C2015   1.356       .  A
N2011      H2042   1.036       .  S
N2012      C2019   1.353       .  A
N2012      C2020   1.351       .  A
C2013      C2021   1.389       .  A
C2013      C2029   1.416       .  A
C2014      C2030   1.413       .  A
C2014      C2022   1.386       .  A
C2015      C2023   1.387       .  A
C2015      C2032   1.419       .  A
C2016      C2031   1.417       .  A
C2016      C2024   1.387       .  A
C2017      C2029   1.413       .  A
C2017      C2025   1.387       .  A
C2018      C2032   1.414       .  A
C2018      C2026   1.386       .  A
C2019      C2027   1.385       .  A
C2019      C2030   1.414       .  A
C2020      C2028   1.387       .  A
C2020      C2031   1.415       .  A
C2021      C2022   1.374       .  A
C2021      H2033   1.082       .  S
C2022      H2034   1.082       .  S
C2023      C2024   1.376       .  A
C2023      H2035   1.082       .  S
C2024      H2036   1.082       .  S
C2025      C2026   1.372       .  A
C2025      H2037   1.082       .  S
C2026      H2038   1.082       .  S
C2027      C2028   1.372       .  A
C2027      H2039   1.082       .  S
C2028      H2040   1.082       .  S
C2029      C2295   1.478       .  S
C2030      C2220   1.483       .  S
C2031      C2247   1.480       .  S
C2032      C2319   1.490       .  S
O2043     Ni2051   1.921       .  S
O2043      C2053   1.283       .  A
O2044      C2054   1.282       .  A
O2045     Ni2051   1.913       .  S
O2045      C2055   1.281       .  A
O2046      C2056   1.279       .  A
O2047      C2056   1.283       .  A
O2048     Ni2052   1.918       .  S
O2048      C2055   1.282       .  A
O2049      C2054   1.282       .  A
O2050     Ni2052   1.918       .  S
O2050      C2053   1.282       .  A
Ni2051    Ni2052   2.386       .  S
C2053      C2340   1.486       .  S
C2054      C2223   1.485       .  S
C2055      C2244   1.481       .  S
C2056      C2367   1.478       .  S
O2057     Ni2065   1.913   1_545  S
O2058     Ni2065   1.910       .  S
O2059     Ni2065   1.927   1_545  S
O2060     Ni2065   1.922       .  S
O2061     Ni2066   1.906       .  S
O2061      C2070   1.279       .  A
O2062     Ni2066   1.902   1_545  S
O2062      C2069   1.279       .  A
O2063     Ni2066   1.909       .  S
O2063      C2068   1.280       .  A
O2064     Ni2066   1.909   1_545  S
O2064      C2067   1.282       .  A
C2067      C2508   1.481       .  S
C2068      C2196   1.471       .  S
C2069      C2175   1.484       .  S
C2070      C2775   1.483       .  S
O2071     Ni2079   1.905   1_655  S
O2071      C2081   1.279       .  A
O2072     Ni2079   1.911       .  S
O2072      C2082   1.278       .  A
O2073     Ni2079   1.928   1_655  S
O2073      C2083   1.285       .  A
O2074     Ni2079   1.923       .  S
O2074      C2084   1.283       .  A
O2075     Ni2080   1.909       .  S
O2076     Ni2080   1.903   1_655  S
O2077     Ni2080   1.928       .  S
O2078     Ni2080   1.928   1_655  S
C2081      C2148   1.479       .  S
C2082      C2271   1.467       .  S
C2083      C3036   1.480       .  S
C2084      C2172   1.482       .  S
O2085     Ni2093   1.920   1_655  S
O2086     Ni2093   1.917       .  S
O2087     Ni2093   1.922   1_655  S
O2088     Ni2093   1.916       .  S
O2089     Ni2094   1.914       .  S
O2089      C2098   1.281       .  A
O2090     Ni2094   1.921   1_655  S
O2090      C2097   1.281       .  A
O2091     Ni2094   1.926       .  S
O2091      C2096   1.282       .  A
O2092     Ni2094   1.925   1_655  S
O2092      C2095   1.283       .  A
C2095      C2127   1.485       .  S
C2096      C2388   1.472       .  S
C2097      C3207   1.484       .  S
C2098      C2199   1.471       .  S
O2099     Ni2107   1.925       .  S
O2100     Ni2107   1.923   1_545  S
O2101     Ni2107   1.917       .  S
O2102     Ni2107   1.921   1_545  S
O2103     Ni2108   1.923   1_545  S
O2103      C2112   1.282       .  A
O2104     Ni2108   1.920       .  S
O2104      C2111   1.282       .  A
O2105     Ni2108   1.918   1_545  S
O2105      C2110   1.282       .  A
O2106     Ni2108   1.920       .  S
O2106      C2109   1.283       .  A
C2109      C2919   1.483       .  S
C2110      C2151   1.476       .  S
C2111      C2124   1.484       .  S
C2112      C2652   1.485       .  S
C2113      C2114   1.398       .  A
C2113      C2118   1.403       .  A
C2113      H2129   1.084       .  S
C2114      C2115   1.403       .  A
C2114      H2130   1.084       .  S
C2115      C2125   1.403       .  A
C2115      C2116   1.411       .  A
C2116      C2122   1.411       .  A
C2116      C2117   1.413       .  A
C2117      C2119   1.411       .  A
C2117      C2118   1.411       .  A
C2118      C2126   1.403       .  A
C2119      C2128   1.405       .  A
C2119      C2120   1.404       .  A
C2120      C2121   1.401       .  A
C2120      H2131   1.084       .  S
C2121      C2122   1.404       .  A
C2121      H2132   1.083       .  S
C2122      C2123   1.406       .  A
C2123      C2124   1.409       .  A
C2123      H2133   1.084       .  S
C2124      C2125   1.407       .  A
C2125      H2134   1.084       .  S
C2126      C2127   1.408       .  A
C2126      H2135   1.084       .  S
C2127      C2128   1.408       .  A
C2128      H2136   1.084       .  S
C2137      C2138   1.397       .  A
C2137      C2142   1.402       .  A
C2137      H2153   1.084       .  S
C2138      C2139   1.403       .  A
C2138      H2154   1.084       .  S
C2139      C2149   1.398       .  A
C2139      C2140   1.409       .  A
C2140      C2146   1.413       .  A
C2140      C2141   1.410       .  A
C2141      C2143   1.410       .  A
C2141      C2142   1.413       .  A
C2142      C2150   1.401       .  A
C2143      C2152   1.401       .  A
C2144      C2145   1.401       .  A
C2144      H2155   1.083       .  S
C2145      H2156   1.083       .  S
C2146      C2147   1.405       .  A
C2147      C2148   1.406       .  A
C2148      C2149   1.407       .  A
C2149      H2158   1.084       .  S
C2150      C2151   1.405       .  A
C2150      H2159   1.084       .  S
C2151      C2152   1.407       .  A
C2152      H2160   1.084       .  S
C2161      C2162   1.398       .  A
C2161      C2166   1.404       .  A
C2161      H2177   1.084       .  S
C2162      C2163   1.403       .  A
C2162      H2178   1.084       .  S
C2163      C2173   1.403       .  A
C2163      C2164   1.413       .  A
C2164      C2170   1.409       .  A
C2164      C2165   1.412       .  A
C2165      C2167   1.413       .  A
C2165      C2166   1.409       .  A
C2166      C2174   1.399       .  A
C2167      C2176   1.407       .  A
C2168      C2169   1.399       .  A
C2168      H2179   1.084       .  S
C2169      H2180   1.084       .  S
C2171      H2181   1.084       .  S
C2172      C2173   1.406       .  A
C2173      H2182   1.084       .  S
C2174      C2175   1.409       .  A
C2174      H2183   1.084       .  S
C2175      C2176   1.407       .  A
C2176      H2184   1.084       .  S
C2185      C2186   1.397       .  A
C2185      C2190   1.403       .  A
C2185      H2201   1.084       .  S
C2186      C2187   1.403       .  A
C2186      H2202   1.084       .  S
C2187      C2197   1.399       .  A
C2187      C2188   1.411       .  A
C2188      C2194   1.412       .  A
C2188      C2189   1.409       .  A
C2189      C2191   1.412       .  A
C2189      C2190   1.412       .  A
C2190      C2198   1.400       .  A
C2191      C2200   1.402       .  A
C2192      C2193   1.399       .  A
C2192      H2203   1.084       .  S
C2193      H2204   1.084       .  S
C2194      C2195   1.402       .  A
C2195      C2196   1.405       .  A
C2196      C2197   1.404       .  A
C2197      H2206   1.084       .  S
C2198      C2199   1.404       .  A
C2198      H2207   1.084       .  S
C2199      C2200   1.405       .  A
C2200      H2208   1.084       .  S
C2209      C2210   1.400       .  A
C2209      C2214   1.404       .  A
C2209      H2225   1.083       .  S
C2210      C2211   1.404       .  A
C2210      H2226   1.084       .  S
C2211      C2221   1.403       .  A
C2211      C2212   1.412       .  A
C2212      C2218   1.413       .  A
C2212      C2213   1.413       .  A
C2213      C2215   1.410       .  A
C2213      C2214   1.412       .  A
C2214      C2222   1.406       .  A
C2215      C2224   1.402       .  A
C2215      C2216   1.403       .  A
C2216      C2217   1.398       .  A
C2216      H2227   1.084       .  S
C2217      C2218   1.403       .  A
C2217      H2228   1.083       .  S
C2218      C2219   1.404       .  A
C2219      C2220   1.403       .  A
C2219      H2229   1.084       .  S
C2220      C2221   1.404       .  A
C2221      H2230   1.084       .  S
C2222      C2223   1.409       .  A
C2222      H2231   1.084       .  S
C2223      C2224   1.408       .  A
C2224      H2232   1.084       .  S
C2233      C2234   1.399       .  A
C2233      C2238   1.403       .  A
C2233      H2249   1.084       .  S
C2234      C2235   1.404       .  A
C2234      H2250   1.084       .  S
C2235      C2245   1.404       .  A
C2235      C2236   1.412       .  A
C2236      C2242   1.410       .  A
C2236      C2237   1.411       .  A
C2237      C2239   1.413       .  A
C2237      C2238   1.412       .  A
C2238      C2246   1.401       .  A
C2239      C2248   1.403       .  A
C2239      C2240   1.403       .  A
C2240      C2241   1.398       .  A
C2240      H2251   1.084       .  S
C2241      C2242   1.403       .  A
C2241      H2252   1.084       .  S
C2242      C2243   1.401       .  A
C2243      C2244   1.407       .  A
C2243      H2253   1.084       .  S
C2244      C2245   1.408       .  A
C2245      H2254   1.084       .  S
C2246      C2247   1.402       .  A
C2246      H2255   1.084       .  S
C2247      C2248   1.403       .  A
C2248      H2256   1.084       .  S
C2257      C2258   1.400       .  A
C2257      C2262   1.404       .  A
C2257      H2273   1.084   1_554  S
C2258      C2259   1.405       .  A
C2258      H2274   1.084   1_554  S
C2259      C2269   1.402       .  A
C2260      C2266   1.413       .  A
C2260      C2261   1.412       .  A
C2261      C2263   1.411       .  A
C2262      C2270   1.407       .  A
C2263      C2272   1.404       .  A
C2263      C2264   1.404       .  A
C2264      C2265   1.400       .  A
C2264      H2275   1.083       .  S
C2265      C2266   1.404       .  A
C2265      H2276   1.084       .  S
C2266      C2267   1.407       .  A
C2267      H2277   1.084       .  S
C2268      C2269   1.411       .  A
C2269      H2278   1.084       .  S
C2270      H2279   1.084       .  S
C2271      C2272   1.404       .  A
C2272      H2280   1.085       .  S
C2281      C2282   1.397       .  A
C2281      C2286   1.402       .  A
C2281      H2297   1.084       .  S
C2282      C2283   1.404       .  A
C2282      H2298   1.084       .  S
C2283      C2293   1.401       .  A
C2283      C2284   1.409       .  A
C2284      C2290   1.410       .  A
C2284      C2285   1.410       .  A
C2285      C2287   1.412       .  A
C2285      C2286   1.413       .  A
C2286      C2294   1.400       .  A
C2287      C2296   1.400       .  A
C2287      C2288   1.403       .  A
C2288      C2289   1.398       .  A
C2288      H2299   1.084       .  S
C2289      C2290   1.403       .  A
C2289      H2300   1.084       .  S
C2290      C2291   1.401       .  A
C2291      C2292   1.410       .  A
C2291      H2301   1.084       .  S
C2292      C2293   1.412       .  A
C2293      H2302   1.077       .  S
C2294      C2295   1.402       .  A
C2294      H2303   1.084       .  S
C2295      C2296   1.402       .  A
C2296      H2304   1.084       .  S
C2305      C2306   1.401       .  A
C2305      C2310   1.404       .  A
C2305      H2321   1.083       .  S
C2306      C2307   1.404       .  A
C2306      H2322   1.083       .  S
C2307      C2317   1.408       .  A
C2307      C2308   1.414       .  A
C2308      C2314   1.410       .  A
C2308      C2309   1.414       .  A
C2309      C2311   1.413       .  A
C2309      C2310   1.411       .  A
C2310      C2318   1.404       .  A
C2311      C2320   1.405       .  A
C2311      C2312   1.403       .  A
C2312      C2313   1.400       .  A
C2312      H2323   1.084       .  S
C2313      C2314   1.404       .  A
C2313      H2324   1.084       .  S
C2314      C2315   1.402       .  A
C2315      C2316   1.407       .  A
C2315      H2325   1.085       .  S
C2316      C2317   1.404       .  A
C2317      H2326   1.084       .  S
C2318      C2319   1.406       .  A
C2318      H2327   1.084       .  S
C2319      C2320   1.405       .  A
C2320      H2328   1.084       .  S
C2329      C2330   1.400       .  A
C2329      C2334   1.404       .  A
C2329      H2345   1.083       .  S
C2330      C2331   1.404       .  A
C2330      H2346   1.084       .  S
C2331      C2341   1.405       .  A
C2331      C2332   1.411       .  A
C2332      C2338   1.411       .  A
C2332      C2333   1.414       .  A
C2333      C2335   1.413       .  A
C2333      C2334   1.412       .  A
C2334      C2342   1.405       .  A
C2335      C2344   1.404       .  A
C2335      C2336   1.403       .  A
C2336      C2337   1.399       .  A
C2336      H2347   1.083       .  S
C2337      C2338   1.404       .  A
C2337      H2348   1.084       .  S
C2338      C2339   1.404       .  A
C2339      C2340   1.408       .  A
C2339      H2349   1.084       .  S
C2340      C2341   1.409       .  A
C2341      H2350   1.084       .  S
C2342      C2343   1.405       .  A
C2342      H2351   1.084       .  S
C2343      C2344   1.404       .  A
C2344      H2352   1.084       .  S
C2353      C2354   1.397       .  A
C2353      C2358   1.404       .  A
C2353      H2369   1.084       .  S
C2354      C2355   1.402       .  A
C2354      H2370   1.084       .  S
C2355      C2365   1.400       .  A
C2355      C2356   1.413       .  A
C2356      C2362   1.412       .  A
C2356      C2357   1.409       .  A
C2357      C2359   1.412       .  A
C2357      C2358   1.410       .  A
C2358      C2366   1.399       .  A
C2359      C2368   1.403       .  A
C2359      C2360   1.403       .  A
C2360      C2361   1.398       .  A
C2360      H2371   1.084       .  S
C2361      C2362   1.403       .  A
C2361      H2372   1.084       .  S
C2362      C2363   1.400       .  A
C2363      C2364   1.402       .  A
C2363      H2373   1.084       .  S
C2364      C2365   1.401       .  A
C2365      H2374   1.084       .  S
C2366      C2367   1.408       .  A
C2366      H2375   1.084       .  S
C2367      C2368   1.406       .  A
C2368      H2376   1.084       .  S
C2377      C2378   1.398       .  A
C2377      C2382   1.404       .  A
C2377      H2393   1.084       .  S
C2378      C2379   1.402       .  A
C2378      H2394   1.084       .  S
C2379      C2389   1.406       .  A
C2379      C2380   1.415       .  A
C2380      C2386   1.410       .  A
C2380      C2381   1.413       .  A
C2381      C2383   1.414       .  A
C2381      C2382   1.408       .  A
C2382      C2390   1.399       .  A
C2383      C2392   1.410       .  A
C2383      C2384   1.404       .  A
C2384      C2385   1.401       .  A
C2384      H2395   1.083       .  S
C2385      C2386   1.405       .  A
C2385      H2396   1.084       .  S
C2386      C2387   1.404       .  A
C2387      C2388   1.406       .  A
C2387      H2397   1.085       .  S
C2388      C2389   1.402       .  A
C2389      H2398   1.084       .  S
C2390      C2391   1.411       .  A
C2390      H2399   1.083       .  S
C2391      C2392   1.407       .  A
C2392      H2400   1.083       .  S
C2401      C2402   1.396       .  A
C2401      C2406   1.403       .  A
C2401      H2417   1.084       .  S
C2402      C2403   1.402       .  A
C2402      H2418   1.084       .  S
C2403      C2413   1.399       .  A
C2403      C2404   1.412       .  A
C2404      C2410   1.411       .  A
C2404      C2405   1.408       .  A
C2405      C2407   1.411       .  A
C2405      C2406   1.408       .  A
C2406      C2414   1.395       .  A
C2407      C2416   1.403       .  A
C2407      C2408   1.404       .  A
C2408      C2409   1.398       .  A
C2408      H2419   1.084       .  S
C2409      C2410   1.403       .  A
C2409      H2420   1.084       .  S
C2410      C2411   1.399       .  A
C2411      C2412   1.405       .  A
C2411      H2421   1.084       .  S
C2412      C2413   1.403       .  A
C2413      H2422   1.085       .  S
C2414      C2415   1.409       .  A
C2414      H2423   1.085       .  S
C2415      C2416   1.411       .  A
C2416      H2424   1.078       .  S
C2425      C2426   1.400       .  A
C2425      C2430   1.404       .  A
C2425      H2441   1.084       .  S
C2426      C2427   1.403       .  A
C2426      H2442   1.083       .  S
C2427      C2437   1.405       .  A
C2427      C2428   1.413       .  A
C2428      C2434   1.412       .  A
C2428      C2429   1.416       .  A
C2429      C2431   1.413       .  A
C2429      C2430   1.412       .  A
C2430      C2438   1.405       .  A
C2431      C2440   1.409       .  A
C2431      C2432   1.405       .  A
C2432      C2433   1.402       .  A
C2432      H2443   1.083       .  S
C2433      C2434   1.405       .  A
C2433      H2444   1.083       .  S
C2434      C2435   1.408       .  A
C2435      C2436   1.406       .  A
C2435      H2445   1.084       .  S
C2436      C2437   1.404       .  A
C2437      H2446   1.084       .  S
C2438      C2439   1.404       .  A
C2438      H2447   1.085       .  S
C2439      C2440   1.406       .  A
C2440      H2448   1.084       .  S
C2449      C2450   1.399       .  A
C2449      C2454   1.404       .  A
C2449      H2465   1.084       .  S
C2450      C2451   1.403       .  A
C2450      H2466   1.084       .  S
C2451      C2461   1.402       .  A
C2451      C2452   1.412       .  A
C2452      C2458   1.413       .  A
C2452      C2453   1.413       .  A
C2453      C2455   1.412       .  A
C2453      C2454   1.412       .  A
C2454      C2462   1.404       .  A
C2455      C2464   1.405       .  A
C2455      C2456   1.404       .  A
C2456      C2457   1.401       .  A
C2456      H2467   1.083       .  S
C2457      C2458   1.404       .  A
C2457      H2468   1.083       .  S
C2458      C2459   1.406       .  A
C2459      C2460   1.405       .  A
C2459      H2469   1.084       .  S
C2460      C2461   1.404       .  A
C2461      H2470   1.084       .  S
C2462      C2463   1.407       .  A
C2462      H2471   1.084       .  S
C2463      C2464   1.407       .  A
C2464      H2472   1.084       .  S
C2473      C2474   1.398       .  A
C2473      C2478   1.403       .  A
C2473      H2489   1.084       .  S
C2474      C2475   1.403       .  A
C2474      H2490   1.084       .  S
C2475      C2485   1.403       .  A
C2475      C2476   1.413       .  A
C2476      C2482   1.412       .  A
C2476      C2477   1.412       .  A
C2477      C2479   1.412       .  A
C2477      C2478   1.411       .  A
C2478      C2486   1.401       .  A
C2479      C2488   1.404       .  A
C2479      C2480   1.404       .  A
C2480      C2481   1.400       .  A
C2480      H2491   1.084       .  S
C2481      C2482   1.404       .  A
C2481      H2492   1.084       .  S
C2482      C2483   1.403       .  A
C2483      C2484   1.404       .  A
C2483      H2493   1.084       .  S
C2484      C2485   1.403       .  A
C2485      H2494   1.084       .  S
C2486      C2487   1.407       .  A
C2486      H2495   1.084       .  S
C2487      C2488   1.408       .  A
C2488      H2496   1.084       .  S
C2497      C2498   1.393       .  A
C2497      C2502   1.401       .  A
C2497      H2513   1.084       .  S
C2498      C2499   1.401       .  A
C2498      H2514   1.084       .  S
C2499      C2509   1.394       .  A
C2499      C2500   1.411       .  A
C2500      C2506   1.411       .  A
C2500      C2501   1.411       .  A
C2501      C2503   1.413       .  A
C2501      C2502   1.410       .  A
C2502      C2510   1.393       .  A
C2503      C2512   1.412       .  A
C2503      C2504   1.406       .  A
C2505      H2516   1.083       .  S
C2506      C2507   1.410       .  A
C2507      C2508   1.411       .  A
C2508      C2509   1.404       .  A
C2509      H2518   1.084       .  S
C2510      C2511   1.403       .  A
C2510      H2519   1.085       .  S
C2511      C2512   1.408       .  A
C2512      H2520   1.084       .  S
C2521      C2522   1.398       .  A
C2521      C2526   1.402       .  A
C2521      H2537   1.084       .  S
C2522      C2523   1.403       .  A
C2522      H2538   1.084       .  S
C2523      C2533   1.401       .  A
C2523      C2524   1.411       .  A
C2524      C2530   1.413       .  A
C2524      C2525   1.413       .  A
C2525      C2527   1.412       .  A
C2525      C2526   1.413       .  A
C2526      C2534   1.402       .  A
C2527      C2536   1.405       .  A
C2527      C2528   1.404       .  A
C2528      C2529   1.401       .  A
C2528      H2539   1.084       .  S
C2529      C2530   1.405       .  A
C2529      H2540   1.083       .  S
C2530      C2531   1.407       .  A
C2531      C2532   1.407       .  A
C2531      H2541   1.084       .  S
C2532      C2533   1.406       .  A
C2533      H2542   1.084       .  S
C2534      C2535   1.401       .  A
C2534      H2543   1.085       .  S
C2535      C2536   1.404       .  A
C2536      H2544   1.085       .  S
C2545      C2546   1.400       .  A
C2545      C2550   1.403       .  A
C2545      H2561   1.084       .  S
C2546      C2547   1.405       .  A
C2546      H2562   1.084       .  S
C2547      C2557   1.405       .  A
C2547      C2548   1.409       .  A
C2548      C2554   1.410       .  A
C2548      C2549   1.413       .  A
C2549      C2551   1.412       .  A
C2549      C2550   1.413       .  A
C2550      C2558   1.405       .  A
C2551      C2560   1.403       .  A
C2551      C2552   1.403       .  A
C2552      C2553   1.399       .  A
C2552      H2563   1.083       .  S
C2553      C2554   1.403       .  A
C2553      H2564   1.084       .  S
C2554      C2555   1.403       .  A
C2555      C2556   1.410       .  A
C2555      H2565   1.084       .  S
C2556      C2557   1.415       .  A
C2557      H2566   1.078       .  S
C2558      C2559   1.404       .  A
C2558      H2567   1.084       .  S
C2559      C2560   1.403       .  A
C2560      H2568   1.084       .  S
C2569      C2570   1.398       .  A
C2569      C2574   1.403       .  A
C2569      H2585   1.084       .  S
C2570      C2571   1.403       .  A
C2570      H2586   1.084       .  S
C2571      C2581   1.402       .  A
C2571      C2572   1.413       .  A
C2572      C2578   1.412       .  A
C2572      C2573   1.413       .  A
C2573      C2575   1.414       .  A
C2573      C2574   1.411       .  A
C2574      C2582   1.401       .  A
C2575      C2584   1.407       .  A
C2575      C2576   1.404       .  A
C2576      C2577   1.401       .  A
C2576      H2587   1.083       .  S
C2577      C2578   1.404       .  A
C2577      H2588   1.083       .  S
C2578      C2579   1.405       .  A
C2579      C2580   1.405       .  A
C2579      H2589   1.084       .  S
C2580      C2581   1.404       .  A
C2581      H2590   1.084       .  S
C2582      C2583   1.405       .  A
C2582      H2591   1.085       .  S
C2583      C2584   1.403       .  A
C2584      H2592   1.084       .  S
C2593      C2594   1.401       .  A
C2593      C2598   1.404       .  A
C2593      H2609   1.084       .  S
C2594      C2595   1.404       .  A
C2594      H2610   1.084       .  S
C2595      C2605   1.406       .  A
C2595      C2596   1.412       .  A
C2596      C2602   1.412       .  A
C2596      C2597   1.415       .  A
C2597      C2599   1.413       .  A
C2597      C2598   1.411       .  A
C2598      C2606   1.405       .  A
C2599      C2608   1.407       .  A
C2599      C2600   1.404       .  A
C2600      C2601   1.400       .  A
C2600      H2611   1.083       .  S
C2601      C2602   1.404       .  A
C2601      H2612   1.083       .  S
C2602      C2603   1.405       .  A
C2603      C2604   1.407       .  A
C2603      H2613   1.084       .  S
C2604      C2605   1.407       .  A
C2605      H2614   1.084       .  S
C2606      C2607   1.408       .  A
C2606      H2615   1.084       .  S
C2607      C2608   1.406       .  A
C2608      H2616   1.084       .  S
C2617      C2618   1.396       .  A
C2617      C2622   1.401       .  A
C2617      H2633   1.084       .  S
C2618      C2619   1.402       .  A
C2618      H2634   1.084       .  S
C2619      C2629   1.397       .  A
C2619      C2620   1.411       .  A
C2620      C2626   1.412       .  A
C2620      C2621   1.409       .  A
C2621      C2623   1.412       .  A
C2621      C2622   1.413       .  A
C2622      C2630   1.398       .  A
C2623      C2632   1.403       .  A
C2623      C2624   1.404       .  A
C2624      C2625   1.400       .  A
C2624      H2635   1.084       .  S
C2625      C2626   1.404       .  A
C2625      H2636   1.084       .  S
C2626      C2627   1.404       .  A
C2627      C2628   1.408       .  A
C2627      H2637   1.084       .  S
C2628      C2629   1.405       .  A
C2629      H2638   1.084       .  S
C2630      C2631   1.400       .  A
C2630      H2639   1.085       .  S
C2631      C2632   1.404       .  A
C2632      H2640   1.084       .  S
C2641      C2642   1.395       .  A
C2641      C2646   1.402       .  A
C2641      H2657   1.084       .  S
C2642      C2643   1.402       .  A
C2642      H2658   1.084       .  S
C2643      C2653   1.399       .  A
C2644      C2650   1.411       .  A
C2644      C2645   1.414       .  A
C2645      C2647   1.414       .  A
C2646      C2654   1.394       .  A
C2647      C2656   1.411       .  A
C2647      C2648   1.404       .  A
C2648      C2649   1.403       .  A
C2648      H2659   1.083       .  S
C2649      C2650   1.405       .  A
C2649      H2660   1.083       .  S
C2650      C2651   1.409       .  A
C2651      C2652   1.410       .  A
C2651      H2661   1.084       .  S
C2653      H2662   1.084       .  S
C2654      C2655   1.405   1_556  A
C2654      H2663   1.085       .  S
C2656      H2664   1.084       .  S
C2665      C2666   1.397       .  A
C2665      C2670   1.404       .  A
C2665      H2681   1.084       .  S
C2666      C2667   1.402       .  A
C2666      H2682   1.084       .  S
C2667      C2677   1.400       .  A
C2667      C2668   1.413       .  A
C2668      C2674   1.412       .  A
C2668      C2669   1.409       .  A
C2669      C2671   1.410       .  A
C2669      C2670   1.409       .  A
C2670      C2678   1.400       .  A
C2671      C2680   1.400       .  A
C2671      C2672   1.403       .  A
C2672      C2673   1.398       .  A
C2672      H2683   1.084       .  S
C2673      C2674   1.403       .  A
C2673      H2684   1.084       .  S
C2674      C2675   1.400       .  A
C2675      C2676   1.402       .  A
C2675      H2685   1.084       .  S
C2676      C2677   1.402       .  A
C2677      H2686   1.084       .  S
C2678      C2679   1.412       .  A
C2678      H2687   1.076       .  S
C2679      C2680   1.410       .  A
C2680      H2688   1.085       .  S
C2689      C2690   1.401       .  A
C2689      C2694   1.404       .  A
C2689      H2705   1.083       .  S
C2690      C2691   1.404       .  A
C2690      H2706   1.084       .  S
C2691      C2701   1.405       .  A
C2691      C2692   1.411       .  A
C2692      C2698   1.414       .  A
C2692      C2693   1.416       .  A
C2693      C2695   1.412       .  A
C2693      C2694   1.413       .  A
C2694      C2702   1.407       .  A
C2695      C2704   1.407       .  A
C2695      C2696   1.404       .  A
C2696      C2697   1.402       .  A
C2696      H2707   1.083       .  S
C2697      C2698   1.404       .  A
C2697      H2708   1.083       .  S
C2698      C2699   1.409       .  A
C2699      C2700   1.404       .  A
C2699      H2709   1.084       .  S
C2700      C2701   1.406       .  A
C2701      H2710   1.085       .  S
C2702      C2703   1.405       .  A
C2702      H2711   1.084       .  S
C2703      C2704   1.406       .  A
C2704      H2712   1.084       .  S
C2713      C2714   1.400       .  A
C2713      C2718   1.404       .  A
C2713      H2729   1.084       .  S
C2714      C2715   1.404       .  A
C2714      H2730   1.083       .  S
C2715      C2725   1.406       .  A
C2715      C2716   1.413       .  A
C2716      C2722   1.412       .  A
C2716      C2717   1.414       .  A
C2717      C2719   1.412       .  A
C2717      C2718   1.411       .  A
C2718      C2726   1.405       .  A
C2719      C2728   1.406       .  A
C2719      C2720   1.404       .  A
C2720      C2721   1.400       .  A
C2720      H2731   1.084       .  S
C2721      C2722   1.404       .  A
C2721      H2732   1.084       .  S
C2722      C2723   1.404       .  A
C2723      C2724   1.404       .  A
C2723      H2733   1.084       .  S
C2724      C2725   1.405       .  A
C2725      H2734   1.084       .  S
C2726      C2727   1.409       .  A
C2726      H2735   1.084       .  S
C2727      C2728   1.408       .  A
C2728      H2736   1.084       .  S
C2737      C2738   1.400       .  A
C2737      C2742   1.404       .  A
C2737      H2753   1.084       .  S
C2738      C2739   1.403       .  A
C2738      H2754   1.084       .  S
C2739      C2749   1.403       .  A
C2739      C2740   1.413       .  A
C2740      C2746   1.412       .  A
C2740      C2741   1.411       .  A
C2741      C2743   1.411       .  A
C2741      C2742   1.411       .  A
C2742      C2750   1.404       .  A
C2743      C2752   1.401       .  A
C2743      C2744   1.403       .  A
C2744      C2745   1.397       .  A
C2744      H2755   1.084       .  S
C2745      C2746   1.402       .  A
C2745      H2756   1.084       .  S
C2746      C2747   1.400       .  A
C2747      C2748   1.401       .  A
C2747      H2757   1.084       .  S
C2748      C2749   1.403       .  A
C2749      H2758   1.084       .  S
C2750      C2751   1.409       .  A
C2750      H2759   1.084       .  S
C2751      C2752   1.407       .  A
C2752      H2760   1.084       .  S
C2761      C2762   1.400       .  A
C2761      C2766   1.405       .  A
C2761      H2777   1.084       .  S
C2762      C2763   1.403       .  A
C2762      H2778   1.084       .  S
C2763      C2773   1.406       .  A
C2763      C2764   1.413       .  A
C2764      C2765   1.412       .  A
C2765      C2766   1.409       .  A
C2766      C2774   1.402       .  A
C2767      C2776   1.401       .  A
C2767      C2768   1.402       .  A
C2768      C2769   1.396       .  A
C2768      H2779   1.084       .  S
C2769      C2770   1.403       .  A
C2769      H2780   1.084       .  S
C2770      C2771   1.398       .  A
C2771      H2781   1.082       .  S
C2772      C2773   1.405       .  A
C2773      H2782   1.084       .  S
C2774      C2775   1.410       .  A
C2774      H2783   1.084       .  S
C2776      H2784   1.084       .  S
C2785      C2786   1.400       .  A
C2785      H2801   1.083       .  S
C2786      H2802   1.084       .  S
C2787      C2788   1.408       .  A
C2788      C2794   1.415       .  A
C2788      C2789   1.414       .  A
C2789      C2791   1.406       .  A
C2789      C2790   1.414       .  A
C2790      C2798   1.412       .  A
C2791      C2800   1.399       .  A
C2791      C2792   1.405       .  A
C2792      C2793   1.398       .  A
C2792      H2803   1.084       .  S
C2793      C2794   1.402       .  A
C2793      H2804   1.084       .  S
C2794      C2795   1.405       .  A
C2795      C2796   1.402       .  A
C2795      H2805   1.084       .  S
C2797      H2806   1.084       .  S
C2798      C2799   1.408       .  A
C2798      H2807   1.083       .  S
C2799      C2800   1.414       .  A
C2800      H2808   1.082       .  S
C2809      C2810   1.396       .  A
C2809      C2814   1.404       .  A
C2809      H2825   1.084       .  S
C2810      C2811   1.401       .  A
C2810      H2826   1.084       .  S
C2811      C2821   1.399       .  A
C2811      C2812   1.413       .  A
C2812      C2818   1.411       .  A
C2812      C2813   1.408       .  A
C2813      C2815   1.410       .  A
C2813      C2814   1.408       .  A
C2814      C2822   1.398       .  A
C2815      C2824   1.400       .  A
C2815      C2816   1.403       .  A
C2816      C2817   1.398       .  A
C2816      H2827   1.084       .  S
C2817      C2818   1.403       .  A
C2817      H2828   1.084       .  S
C2818      C2819   1.399       .  A
C2819      C2820   1.403       .  A
C2819      H2829   1.085       .  S
C2820      C2821   1.401       .  A
C2821      H2830   1.084       .  S
C2822      C2823   1.412       .  A
C2822      H2831   1.077       .  S
C2823      C2824   1.409       .  A
C2824      H2832   1.084       .  S
C2833      C2834   1.400       .  A
C2833      C2838   1.404       .  A
C2833      H2849   1.084       .  S
C2834      C2835   1.404       .  A
C2834      H2850   1.083       .  S
C2835      C2845   1.406       .  A
C2835      C2836   1.413       .  A
C2836      C2842   1.412       .  A
C2836      C2837   1.415       .  A
C2837      C2839   1.413       .  A
C2837      C2838   1.412       .  A
C2838      C2846   1.405       .  A
C2839      C2848   1.407       .  A
C2839      C2840   1.404       .  A
C2840      C2841   1.401       .  A
C2840      H2851   1.083       .  S
C2841      C2842   1.404       .  A
C2841      H2852   1.083       .  S
C2842      C2843   1.406       .  A
C2843      C2844   1.405       .  A
C2843      H2853   1.084       .  S
C2844      C2845   1.405       .  A
C2845      H2854   1.084       .  S
C2846      C2847   1.405       .  A
C2846      H2855   1.085       .  S
C2847      C2848   1.405       .  A
C2848      H2856   1.085       .  S
C2857      C2858   1.400       .  A
C2857      C2862   1.404       .  A
C2857      H2873   1.083       .  S
C2858      C2859   1.404       .  A
C2858      H2874   1.084       .  S
C2859      C2869   1.406       .  A
C2859      C2860   1.411       .  A
C2860      C2866   1.412       .  A
C2860      C2861   1.417       .  A
C2861      C2863   1.412       .  A
C2861      C2862   1.412       .  A
C2862      C2870   1.407       .  A
C2863      C2872   1.409       .  A
C2863      C2864   1.405       .  A
C2864      C2865   1.402       .  A
C2864      H2875   1.083       .  S
C2865      C2866   1.405       .  A
C2865      H2876   1.083       .  S
C2866      C2867   1.409       .  A
C2867      C2868   1.411       .  A
C2867      H2877   1.084       .  S
C2868      C2869   1.410       .  A
C2869      H2878   1.084       .  S
C2870      C2871   1.406       .  A
C2870      H2879   1.084       .  S
C2871      C2872   1.407       .  A
C2872      H2880   1.084       .  S
C2881      C2882   1.398       .  A
C2881      C2886   1.403       .  A
C2881      H2897   1.084       .  S
C2882      C2883   1.402       .  A
C2882      H2898   1.084       .  S
C2883      C2893   1.400       .  A
C2883      C2884   1.412       .  A
C2884      C2890   1.413       .  A
C2884      C2885   1.411       .  A
C2885      C2887   1.411       .  A
C2885      C2886   1.411       .  A
C2886      C2894   1.401       .  A
C2887      C2896   1.402       .  A
C2887      C2888   1.404       .  A
C2888      C2889   1.399       .  A
C2888      H2899   1.084       .  S
C2889      C2890   1.403       .  A
C2889      H2900   1.084       .  S
C2890      C2891   1.403       .  A
C2891      C2892   1.403       .  A
C2891      H2901   1.084       .  S
C2892      C2893   1.401       .  A
C2893      H2902   1.084       .  S
C2894      C2895   1.407       .  A
C2894      H2903   1.084       .  S
C2895      C2896   1.408       .  A
C2896      H2904   1.084       .  S
C2905      C2906   1.395       .  A
C2905      C2910   1.402       .  A
C2905      H2921   1.084       .  S
C2906      C2907   1.403       .  A
C2906      H2922   1.084       .  S
C2907      C2917   1.395       .  A
C2907      C2908   1.408       .  A
C2908      C2914   1.413       .  A
C2908      C2909   1.412       .  A
C2909      C2911   1.410       .  A
C2909      C2910   1.412       .  A
C2910      C2918   1.400       .  A
C2911      C2920   1.406       .  A
C2912      C2913   1.403       .  A
C2912      H2923   1.083       .  S
C2913      H2924   1.083       .  S
C2914      C2915   1.410       .  A
C2915      C2916   1.408       .  A
C2916      C2917   1.409       .  A
C2917      H2926   1.083       .  S
C2918      C2919   1.405       .  A
C2918      H2927   1.084       .  S
C2919      C2920   1.411       .  A
C2929      C2930   1.398       .  A
C2929      C2934   1.402       .  A
C2929      H2945   1.084       .  S
C2930      C2931   1.404       .  A
C2930      H2946   1.084       .  S
C2931      C2941   1.403       .  A
C2931      C2932   1.410       .  A
C2932      C2938   1.409       .  A
C2932      C2933   1.411       .  A
C2933      C2935   1.412       .  A
C2933      C2934   1.412       .  A
C2934      C2942   1.401       .  A
C2935      C2944   1.402       .  A
C2935      C2936   1.403       .  A
C2936      C2937   1.399       .  A
C2936      H2947   1.084       .  S
C2937      C2938   1.404       .  A
C2937      H2948   1.084       .  S
C2938      C2939   1.401       .  A
C2939      C2940   1.412       .  A
C2939      H2949   1.085       .  S
C2940      C2941   1.412       .  A
C2941      H2950   1.077       .  S
C2942      C2943   1.403       .  A
C2942      H2951   1.084       .  S
C2943      C2944   1.403       .  A
C2944      H2952   1.084       .  S
C2953      C2954   1.403       .  A
C2953      C2958   1.405       .  A
C2953      H2969   1.083       .  S
C2954      C2955   1.405       .  A
C2954      H2970   1.083       .  S
C2955      C2965   1.411       .  A
C2955      C2956   1.414       .  A
C2956      C2962   1.411       .  A
C2956      C2957   1.417       .  A
C2957      C2959   1.413       .  A
C2957      C2958   1.411       .  A
C2958      C2966   1.409       .  A
C2959      C2968   1.407       .  A
C2959      C2960   1.404       .  A
C2960      C2961   1.400       .  A
C2960      H2971   1.083       .  S
C2961      C2962   1.404       .  A
C2961      H2972   1.084       .  S
C2962      C2963   1.404       .  A
C2963      C2964   1.406       .  A
C2963      H2973   1.085       .  S
C2964      C2965   1.405       .  A
C2965      H2974   1.084       .  S
C2966      C2967   1.409       .  A
C2966      H2975   1.084       .  S
C2967      C2968   1.407       .  A
C2968      H2976   1.084       .  S
C2977      C2978   1.401       .  A
C2977      C2982   1.404       .  A
C2977      H2993   1.083       .  S
C2978      C2979   1.405       .  A
C2978      H2994   1.083       .  S
C2979      C2989   1.407       .  A
C2979      C2980   1.412       .  A
C2980      C2986   1.411       .  A
C2980      C2981   1.414       .  A
C2981      C2983   1.412       .  A
C2981      C2982   1.412       .  A
C2982      C2990   1.406       .  A
C2983      C2992   1.402       .  A
C2983      C2984   1.403       .  A
C2984      C2985   1.398       .  A
C2984      H2995   1.084       .  S
C2985      C2986   1.403       .  A
C2985      H2996   1.084       .  S
C2986      C2987   1.403       .  A
C2987      C2988   1.408       .  A
C2987      H2997   1.084       .  S
C2988      C2989   1.410       .  A
C2989      H2998   1.084       .  S
C2990      C2991   1.406       .  A
C2990      H2999   1.084       .  S
C2991      C2992   1.404       .  A
C2992      H3000   1.084       .  S
C3001      C3002   1.397       .  A
C3001      C3006   1.403       .  A
C3001      H3017   1.084       .  S
C3002      C3003   1.402       .  A
C3002      H3018   1.084       .  S
C3003      C3013   1.399       .  A
C3003      C3004   1.412       .  A
C3004      C3010   1.413       .  A
C3004      C3005   1.410       .  A
C3005      C3007   1.412       .  A
C3005      C3006   1.411       .  A
C3006      C3014   1.400       .  A
C3007      C3016   1.404       .  A
C3007      C3008   1.404       .  A
C3008      C3009   1.400       .  A
C3008      H3019   1.084       .  S
C3009      C3010   1.403       .  A
C3009      H3020   1.084       .  S
C3010      C3011   1.403       .  A
C3011      C3012   1.403       .  A
C3011      H3021   1.084       .  S
C3012      C3013   1.402       .  A
C3013      H3022   1.085       .  S
C3014      C3015   1.406       .  A
C3014      H3023   1.084       .  S
C3015      C3016   1.406       .  A
C3016      H3024   1.084       .  S
C3025      C3026   1.400       .  A
C3025      C3030   1.403       .  A
C3025      H3041   1.084       .  S
C3026      C3027   1.405       .  A
C3026      H3042   1.084       .  S
C3027      C3037   1.401       .  A
C3028      C3034   1.413       .  A
C3028      C3029   1.412       .  A
C3029      C3031   1.410       .  A
C3030      C3038   1.406       .  A
C3031      C3040   1.397       .  A
C3031      C3032   1.402       .  A
C3032      C3033   1.397       .  A
C3032      H3043   1.084       .  S
C3033      C3034   1.402       .  A
C3033      H3044   1.084       .  S
C3034      C3035   1.402       .  A
C3035      C3036   1.404       .  A
C3035      H3045   1.084       .  S
C3037      H3046   1.084       .  S
C3038      H3047   1.084       .  S
C3039      C3040   1.404       .  A
C3040      H3048   1.085       .  S
C3049      C3050   1.400       .  A
C3049      C3054   1.404       .  A
C3049      H3065   1.084       .  S
C3050      C3051   1.404       .  A
C3050      H3066   1.084       .  S
C3051      C3061   1.405       .  A
C3051      C3052   1.413       .  A
C3052      C3058   1.412       .  A
C3052      C3053   1.412       .  A
C3053      C3055   1.412       .  A
C3053      C3054   1.413       .  A
C3054      C3062   1.405       .  A
C3055      C3064   1.402       .  A
C3055      C3056   1.403       .  A
C3056      C3057   1.398       .  A
C3056      H3067   1.084       .  S
C3057      C3058   1.403       .  A
C3057      H3068   1.084       .  S
C3058      C3059   1.401       .  A
C3059      C3060   1.405       .  A
C3059      H3069   1.085       .  S
C3060      C3061   1.403       .  A
C3062      C3063   1.404       .  A
C3062      H3071   1.085       .  S
C3063      C3064   1.405       .  A
C3064      H3072   1.085       .  S
C3073      C3074   1.395       .  A
C3073      C3078   1.401       .  A
C3073      H3089   1.084       .  S
C3074      C3075   1.402       .  A
C3074      H3090   1.084       .  S
C3075      C3085   1.395       .  A
C3075      C3076   1.409       .  A
C3076      C3082   1.410       .  A
C3076      C3077   1.408       .  A
C3077      C3079   1.412       .  A
C3077      C3078   1.412       .  A
C3078      C3086   1.396       .  A
C3079      C3088   1.402       .  A
C3079      C3080   1.403       .  A
C3080      C3081   1.399       .  A
C3080      H3091   1.084       .  S
C3081      C3082   1.405       .  A
C3081      H3092   1.084       .  S
C3082      C3083   1.403       .  A
C3083      C3084   1.412       .  A
C3083      H3093   1.077       .  S
C3084      C3085   1.408       .  A
C3085      H3094   1.085       .  S
C3086      C3087   1.400       .  A
C3086      H3095   1.085       .  S
C3087      C3088   1.404       .  A
C3088      H3096   1.084       .  S
C3097      C3098   1.401       .  A
C3097      C3102   1.404       .  A
C3097      H3113   1.084       .  S
C3098      C3099   1.405       .  A
C3098      H3114   1.083       .  S
C3099      C3109   1.408       .  A
C3099      C3100   1.413       .  A
C3100      C3106   1.411       .  A
C3100      C3101   1.412       .  A
C3101      C3103   1.413       .  A
C3101      C3102   1.412       .  A
C3102      C3110   1.404       .  A
C3103      C3112   1.402       .  A
C3103      C3104   1.402       .  A
C3104      C3105   1.398       .  A
C3104      H3115   1.084       .  S
C3105      C3106   1.403       .  A
C3105      H3116   1.084       .  S
C3106      C3107   1.401       .  A
C3107      C3108   1.403       .  A
C3107      H3117   1.085       .  S
C3108      C3109   1.405       .  A
C3109      H3118   1.084       .  S
C3110      C3111   1.405       .  A
C3110      H3119   1.084       .  S
C3111      C3112   1.402       .  A
C3112      H3120   1.084       .  S
C3121      C3122   1.401       .  A
C3121      C3126   1.405       .  A
C3121      H3137   1.083       .  S
C3122      C3123   1.404       .  A
C3122      H3138   1.083       .  S
C3123      C3133   1.407       .  A
C3123      C3124   1.413       .  A
C3124      C3130   1.412       .  A
C3124      C3125   1.414       .  A
C3125      C3127   1.412       .  A
C3125      C3126   1.411       .  A
C3126      C3134   1.406       .  A
C3127      C3136   1.405       .  A
C3127      C3128   1.404       .  A
C3128      C3129   1.399       .  A
C3128      H3139   1.083       .  S
C3129      C3130   1.403       .  A
C3129      H3140   1.084       .  S
C3130      C3131   1.403       .  A
C3131      C3132   1.403       .  A
C3131      H3141   1.084       .  S
C3132      C3133   1.405       .  A
C3133      H3142   1.084       .  S
C3134      C3135   1.410       .  A
C3134      H3143   1.084       .  S
C3135      C3136   1.408       .  A
C3136      H3144   1.084       .  S
C3145      C3146   1.397       .  A
C3145      C3150   1.403       .  A
C3145      H3161   1.084       .  S
C3146      C3147   1.402       .  A
C3146      H3162   1.084       .  S
C3147      C3157   1.399       .  A
C3147      C3148   1.412       .  A
C3148      C3154   1.412       .  A
C3148      C3149   1.410       .  A
C3149      C3151   1.412       .  A
C3149      C3150   1.411       .  A
C3150      C3158   1.399       .  A
C3151      C3160   1.404       .  A
C3151      C3152   1.404       .  A
C3152      C3153   1.400       .  A
C3152      H3163   1.084       .  S
C3153      C3154   1.403       .  A
C3153      H3164   1.084       .  S
C3154      C3155   1.402       .  A
C3155      C3156   1.404       .  A
C3155      H3165   1.084       .  S
C3156      C3157   1.401       .  A
C3157      H3166   1.085       .  S
C3158      C3159   1.405       .  A
C3158      H3167   1.084       .  S
C3159      C3160   1.407       .  A
C3160      H3168   1.084       .  S
C3169      C3170   1.398       .  A
C3169      C3174   1.403       .  A
C3169      H3185   1.084       .  S
C3170      C3171   1.403       .  A
C3170      H3186   1.084       .  S
C3171      C3181   1.403       .  A
C3171      C3172   1.412       .  A
C3172      C3173   1.416       .  A
C3173      C3175   1.413       .  A
C3173      C3174   1.411       .  A
C3174      C3182   1.402       .  A
C3175      C3184   1.410       .  A
C3176      C3177   1.401       .  A
C3176      H3187   1.083       .  S
C3177      C3178   1.404       .  A
C3177      H3188   1.083       .  S
C3178      C3179   1.407       .  A
C3179      H3189   1.084       .  S
C3180      C3181   1.406       .  A
C3181      H3190   1.085       .  S
C3182      C3183   1.406       .  A
C3182      H3191   1.085       .  S
C3183      C3184   1.407       .  A
C3184      H3192   1.084       .  S
C3193      C3194   1.403       .  A
C3193      C3198   1.405       .  A
C3193      H3209   1.083       .  S
C3194      C3195   1.404       .  A
C3194      H3210   1.083       .  S
C3195      C3205   1.410       .  A
C3195      C3196   1.414       .  A
C3196      C3197   1.413       .  A
C3197      C3198   1.411       .  A
C3198      C3206   1.408       .  A
C3199      C3200   1.403       .  A
C3200      C3201   1.399       .  A
C3200      H3211   1.084       .  S
C3201      C3202   1.404       .  A
C3201      H3212   1.084       .  S
C3202      C3203   1.401       .  A
C3203      H3213   1.084       .  S
C3204      C3205   1.406       .  A
C3205      H3214   1.084       .  S
C3206      C3207   1.410       .  A
C3206      H3215   1.084       .  S
C3207      C3208   1.406       .  A
C3217      C3218   1.397       .  A
C3217      C3222   1.403       .  A
C3217      H3233   1.084       .  S
C3218      C3219   1.402       .  A
C3218      H3234   1.084       .  S
C3219      C3229   1.400       .  A
C3219      C3220   1.412       .  A
C3220      C3226   1.412       .  A
C3220      C3221   1.409       .  A
C3221      C3223   1.410       .  A
C3221      C3222   1.409       .  A
C3222      C3230   1.398       .  A
C3223      C3232   1.402       .  A
C3223      C3224   1.404       .  A
C3224      C3225   1.398       .  A
C3224      H3235   1.084       .  S
C3225      C3226   1.403       .  A
C3225      H3236   1.084       .  S
C3226      C3227   1.401       .  A
C3227      C3228   1.403       .  A
C3227      H3237   1.084       .  S
C3228      C3229   1.403       .  A
C3229      H3238   1.084       .  S
C3230      C3231   1.410       .  A
C3230      H3239   1.084       .  S
C3231      C3232   1.411       .  A
C3232      H3240   1.078       .  S
C3241      C3242   1.400       .  A
C3241      C3246   1.404       .  A
C3241      H3257   1.083       .  S
C3242      C3243   1.403       .  A
C3242      H3258   1.084       .  S
C3243      C3253   1.403       .  A
C3243      C3244   1.412       .  A
C3244      C3250   1.413       .  A
C3244      C3245   1.416       .  A
C3245      C3247   1.412       .  A
C3245      C3246   1.413       .  A
C3246      C3254   1.406       .  A
C3247      C3256   1.408       .  A
C3247      C3248   1.405       .  A
C3248      C3249   1.402       .  A
C3248      H3259   1.083       .  S
C3249      C3250   1.405       .  A
C3249      H3260   1.083       .  S
C3250      C3251   1.409       .  A
C3251      C3252   1.407       .  A
C3251      H3261   1.084       .  S
C3252      C3253   1.404       .  A
C3253      H3262   1.084       .  S
C3254      C3255   1.404       .  A
C3254      H3263   1.084       .  S
C3255      C3256   1.407       .  A
C3256      H3264   1.084       .  S
