geometry optimzed in LAMMPS
_audit_creation_date              2020-12-01 
_audit_creation_method            'lammps2cif' 
_symmetry_space_group_name_H-M    'P1' 
_symmetry_Int_Tables_number       1 
_symmetry_cell_setting            triclinic 
loop_ 
_symmetry_equiv_pos_as_xyz 
  x,y,z 
_cell_length_a                    28.17009212 
_cell_length_b                    28.681461139418552 
_cell_length_c                    27.294781166590063 
_cell_angle_alpha                 89.08836883640579 
_cell_angle_beta                  88.43063334694143 
_cell_angle_gamma                 89.80251549317333 
loop_ 
_atom_site_label 
_atom_site_type_symbol 
_atom_site_fract_x 
_atom_site_fract_y 
_atom_site_fract_z 
_atom_site_charge 
C1          C  0.52684567  0.56202384  0.23169783     0.82500
N2          N  0.55918565  0.53339391  0.25292024    -0.75800
C3          C  0.56264942  0.53146630  0.30242710     0.85000
N4          N  0.53316821  0.55809231  0.33063866    -0.75700
C5          C  0.50154896  0.58766362  0.30984691     0.85100
N6          N  0.49802468  0.58928949  0.26018985    -0.77500
C7          C  0.36460631  0.42207654  0.71568164     0.82500
N8          N  0.39114475  0.39380979  0.68599819    -0.75800
C9          C  0.38624858  0.39631257  0.63657817     0.85000
N10         N  0.35590743  0.42789170  0.61722495    -0.75700
C11         C  0.32876137  0.45559453  0.64651568     0.85100
N12         N  0.33327950  0.45279901  0.69587198    -0.77500
C13         C  0.71269639  0.55803184  0.91129165     0.82500
N14         N  0.72833016  0.53287959  0.87213340    -0.75800
C15         C  0.77556907  0.52656603  0.86354321     0.85000
N16         N  0.80687095  0.54527617  0.89450525    -0.75700
C17         C  0.79181739  0.57113497  0.93294302     0.85100
N18         N  0.74445039  0.57737882  0.94171498    -0.77500
C19         C  0.42111187  0.73086760  0.91150742     0.82500
N20         N  0.44813331  0.75267780  0.87595953    -0.75800
C21         C  0.44867214  0.79997950  0.87255030     0.85000
N22         N  0.42223349  0.82511155  0.90495621    -0.75700
C23         C  0.39428662  0.80378551  0.93958770     0.85100
N24         N  0.39392516  0.75643714  0.94325389    -0.77500
C25         C  0.19219002  0.40570321  0.02377372     0.82500
N26         N  0.16612219  0.43672348  0.05045204    -0.75800
C27         C  0.11793970  0.43481178  0.05095973     0.85000
N28         N  0.09609013  0.40220341  0.02424359    -0.75700
C29         C  0.12187902  0.37030855  0.99850353     0.85100
N30         N  0.17008792  0.37212640  0.99824781    -0.77500
C31         C  0.49421068  0.24990765  0.02828707     0.82500
N32         N  0.52463648  0.22779333  0.99674726    -0.75800
C33         C  0.53366749  0.18146131  0.00290796     0.85000
N34         N  0.51055661  0.15701401  0.03929545    -0.75700
C35         C  0.47961197  0.17881735  0.07051083     0.85100
N36         N  0.47189782  0.22536357  0.06510781    -0.77500
O37         O  0.42993715  0.49419907  0.84606289    -0.78600
O38         O  0.49380073  0.54848717  0.05445965    -0.63300
O39         O  0.47855598  0.48328821  0.93467772    -1.09900
C40         C  0.33321239  0.43545082  0.01222290     1.08300
O41         O  0.47381122  0.48542595  0.09797901    -0.76500
O42         O  0.44441295  0.40637933  0.05596163    -0.64100
Ni43       Ni  0.48958340  0.51341618  0.87242343     1.34900
C44         C  0.45160761  0.38569539  0.01572012     0.87000
O45         O  0.55040987  0.53746064  0.97451562    -0.77000
O46         O  0.55107052  0.53400912  0.89206194    -0.87300
C47         C  0.49080090  0.52637370  0.09504021     0.86600
O48         O  0.46182576  0.57247113  0.88728244    -0.65500
O49         O  0.35373360  0.44202430  0.05256861    -0.84800
C50         C  0.45310208  0.59328293  0.92713356     0.87400
C51         C  0.57097926  0.54184002  0.93248453     1.09000
H52         H  0.40297674  0.52192600  0.00977756     0.40800
O53         O  0.42469500  0.49572559  0.01003926    -1.07500
O54         O  0.44172737  0.40340838  0.97422690    -0.64100
Ni55       Ni  0.41575139  0.46200703  0.95123545     1.26300
O56         O  0.46093096  0.57562878  0.96921139    -0.64300
O57         O  0.35276692  0.44225324  0.97006118    -0.76600
C58         C  0.41058872  0.45430024  0.84965471     0.86800
O59         O  0.40843062  0.43176023  0.88995081    -0.63800
Ni60       Ni  0.41472384  0.46443202  0.07190006     1.27400
Ni61       Ni  0.48728564  0.51753755  0.99327176     1.26100
H62         H  0.50006676  0.45701268  0.93555402     0.41400
C63         C  0.48571390  0.23362137  0.53282216     0.82500
N64         N  0.51422947  0.25935737  0.50167279    -0.75800
C65         C  0.51673944  0.30640209  0.50690696     0.85000
N66         N  0.49010183  0.32734132  0.54229576    -0.75700
C67         C  0.46230761  0.30199804  0.57400201     0.85100
N68         N  0.46011331  0.25499396  0.56914104    -0.77500
C69         C  0.41949427  0.75627436  0.41447826     0.82500
N70         N  0.44085068  0.73238819  0.37723546    -0.75800
C71         C  0.43087088  0.68656382  0.37091924     0.85000
N72         N  0.39868682  0.66505422  0.40156740    -0.75700
C73         C  0.37688420  0.68883148  0.43853450     0.85100
N74         N  0.38809930  0.73424162  0.44556828    -0.77500
C75         C  0.54701486  0.92278112  0.73075560     0.82500
N76         N  0.52087642  0.89365545  0.76067228    -0.75800
C77         C  0.52608625  0.89475863  0.81005479     0.85000
N78         N  0.55632749  0.92581130  0.82914218    -0.75700
C79         C  0.58304112  0.95440795  0.79962357     0.85100
N80         N  0.57822008  0.95296981  0.75030693    -0.77500
C81         C  0.71967799  0.91488024  0.42674450     0.82500
N82         N  0.74256640  0.88191397  0.45382366    -0.75800
C83         C  0.79088428  0.88105223  0.45371989     0.85000
N84         N  0.81579908  0.91313624  0.42648253    -0.75700
C85         C  0.79311402  0.94500625  0.39834640     0.85100
N86         N  0.74498019  0.94596354  0.39867752    -0.77500
C87         C  0.37744396  0.06060296  0.21257323     0.82500
N88         N  0.40623538  0.08678173  0.18225135    -0.75800
C89         C  0.40369971  0.08271177  0.13275742     0.85000
N90         N  0.37299850  0.05176493  0.11401164    -0.75700
C91         C  0.34365679  0.02598900  0.14397218     0.85100
N92         N  0.34614438  0.03038883  0.19331319    -0.77500
C93         C  0.19279250  0.05811248  0.52885787     0.82500
N94         N  0.16791093  0.09087884  0.50361056    -0.75800
C95         C  0.11966263  0.09063321  0.50581351     0.85000
N96         N  0.09661671  0.05743657  0.53332947    -0.75700
C97         C  0.12114413  0.02547998  0.55972510     0.85100
N98         N  0.16941312  0.02568734  0.55726346    -0.77500
O99         O  0.48094613  0.99698742  0.59862929    -0.78600
O100        O  0.41149889  0.05182846  0.39086479    -0.63300
O101        O  0.43119184  0.98560158  0.51148801    -1.09900
C102        C  0.57830423  0.94387922  0.43435526     1.08300
O103        O  0.43633765  0.99127941  0.34753256    -0.76500
O104        O  0.46961297  0.91296755  0.38974055    -0.64100
Ni105      Ni  0.41976917  0.01412705  0.57347337     1.34900
C106        C  0.46214193  0.89109359  0.42988542     0.87000
O107        O  0.35637069  0.03707227  0.47206695    -0.77000
O108        O  0.35687179  0.03209127  0.55465022    -0.87300
C109        C  0.41591290  0.03070139  0.35044942     0.86600
O110        O  0.44414289  0.07471825  0.55745114    -0.65500
O111        O  0.55828872  0.95198360  0.39376158    -0.84800
C112        C  0.45155357  0.09655439  0.51724935     0.87400
C113        C  0.33603800  0.03957538  0.51437061     1.09000
H114        H  0.50450189  0.02855268  0.43625128     0.40800
O115        O  0.48412141  0.00153803  0.43581607    -1.07500
O116        O  0.47038565  0.90792081  0.47165418    -0.69300
Ni117      Ni  0.49451016  0.96648594  0.49475855     1.26300
O118        O  0.44397379  0.07929973  0.47551544    -0.64300
O119        O  0.55799396  0.94867378  0.47620780    -0.76600
C120        C  0.50075966  0.95720152  0.59607814     0.86800
O121        O  0.50299427  0.93504212  0.55627039    -0.63800
Ni122      Ni  0.49633694  0.97253971  0.37403939     1.27400
Ni123      Ni  0.42036680  0.02038136  0.45262092     1.26100
H124        H  0.41069716  0.95859742  0.51124951     0.41400
C125        C  0.99319666  0.23929503  0.91283286     0.82500
N126        N  0.96342061  0.25699558  0.87894904    -0.75800
C127        C  0.96685565  0.30234350  0.86469601     0.85000
N128        N  0.99858714  0.33041924  0.88606518    -0.75700
C129        C  0.02805925  0.31325054  0.92042922     0.85100
N130        N  0.02547057  0.26739876  0.93383143    -0.77500
C131        C  0.22269018  0.90056598  0.03549796     0.82500
N132        N  0.24703450  0.93401188  0.05916662    -0.75800
C133        C  0.29524803  0.93216281  0.06015511     0.85000
N134        N  0.31873717  0.89735467  0.03684222    -0.75700
C135        C  0.29489116  0.86347025  0.01369743     0.85100
N136        N  0.24669266  0.86541439  0.01268529    -0.77500
C137        C  0.87833802  0.03612649  0.21448066     0.82500
N138        N  0.84576475  0.01200149  0.24232706    -0.75800
C139        C  0.84167087  0.01941140  0.29128660     0.85000
N140        N  0.86977151  0.05149941  0.31198524    -0.75700
C141        C  0.90206152  0.07596494  0.28432270     0.85100
N142        N  0.90700018  0.06756190  0.23563355    -0.77500
C143        C  0.91740946  0.71259254  0.03090270     0.82500
N144        N  0.87865026  0.69626214  0.00818640    -0.75800
C145        C  0.86845481  0.65004393  0.00979637     0.85000
N146        N  0.89745813  0.62023321  0.03413980    -0.75700
C147        C  0.93546090  0.63646392  0.05806877     0.85100
N148        N  0.94559965  0.68279037  0.05625285    -0.77500
C149        C  0.70119324  0.06253182  0.92555858     0.82500
N150        N  0.67609786  0.03659267  0.89401092    -0.75800
C151        C  0.62869555  0.04399196  0.88942997     0.85000
N152        N  0.60661484  0.07717020  0.91666581    -0.75700
C153        C  0.63127367  0.10348390  0.94801915     0.85100
N154        N  0.67854152  0.09539656  0.95317559    -0.77500
C155        C  0.04210683  0.92313972  0.74055362     0.82500
N156        N  0.07410150  0.94840557  0.71305797    -0.75800
C157        C  0.07662235  0.94372329  0.66355188     0.85000
N158        N  0.04743663  0.91308706  0.64187468    -0.75700
C159        C  0.01568703  0.88748375  0.66915504     0.85100
N160        N  0.01236211  0.89334214  0.71842980    -0.77500
O161        O  0.90748755  0.87684123  0.03133272    -0.78600
O162        O  0.95132209  0.08349135  0.97385934    -0.63300
O163        O  0.92447770  0.95340718  0.96759574    -1.09900
C164        C  0.08948716  0.93900654  0.00085530     1.08300
O165        O  0.01571398  0.07576206  0.92616200    -0.76500
O166        O  0.04790524  0.99235549  0.89643626    -0.64100
Ni167      Ni  0.87108399  0.92677792  0.00250769     1.34900
C168        C  0.02815679  0.95436747  0.88570615     0.87000
O169        O  0.87230713  0.03629037  0.95352438    -0.77000
O170        O  0.82903069  0.97327780  0.97609892    -0.87300
C171        C  0.98421997  0.10094694  0.94686945     0.86600
O172        O  0.87631693  0.96037203  0.06178277    -0.65500
O173        O  0.09344588  0.98030887  0.98348004    -0.84800
C174        C  0.89523037  0.99899355  0.07159034     0.87400
C175        C  0.83298273  0.01445704  0.95825233     1.09000
H176        H  0.00219696  0.00576485  0.02404331     0.40800
O177        O  0.99812666  0.99924167  0.98974681    -1.07500
O178        O  0.00449052  0.92926941  0.91643774    -0.64100
Ni179      Ni  0.98706229  0.93385172  0.98528439     1.26300
O180        O  0.91813256  0.02406824  0.04033039    -0.64300
O181        O  0.05047987  0.91645818  0.00373663    -0.76600
C182        C  0.93881619  0.85162545  0.01035912     0.86800
O183        O  0.97154331  0.86910110  0.98309971    -0.63800
Ni184      Ni  0.05183141  0.02620518  0.95578812     1.27400
Ni185      Ni  0.93570437  0.01881989  0.97178442     1.26100
H186        H  0.92011497  0.94671879  0.93357402     0.41400
C187        C  0.21365115  0.56460580  0.51587330     0.82500
N188        N  0.23672791  0.59637948  0.48644629    -0.75800
C189        C  0.28357648  0.60506780  0.49256290     0.85000
N190        N  0.30760773  0.58034875  0.52670525    -0.75700
C191        C  0.28517523  0.54790701  0.55557750     0.85100
N192        N  0.23803666  0.53997736  0.55006305    -0.77500
C193        C  0.68810196  0.41231822  0.41919658     0.82500
N194        N  0.66490325  0.37554524  0.44099884    -0.75800
C195        C  0.61689303  0.37192190  0.43817100     0.85000
N196        N  0.59243545  0.40577657  0.41427286    -0.75700
C197        C  0.61514166  0.44216488  0.39198238     0.85100
N198        N  0.66312807  0.44564160  0.39469390    -0.77500
C199        C  0.92875734  0.74962028  0.52884427     0.82500
N200        N  0.96105323  0.76697360  0.55982024    -0.75800
C201        C  0.95744633  0.81178820  0.57478894     0.85000
N202        N  0.92259938  0.83957824  0.55725015    -0.75700
C203        C  0.89057421  0.82289455  0.52582241     0.85100
N204        N  0.89355741  0.77763719  0.51162920    -0.77500
C205        C  0.98204777  0.21913508  0.42121362     0.82500
N206        N  0.01575346  0.19222946  0.44293891    -0.75800
C207        C  0.01879348  0.14592230  0.43277646     0.85000
N208        N  0.98844569  0.12717026  0.40089977    -0.75700
C209        C  0.95532876  0.15396390  0.37888043     0.85100
N210        N  0.95152639  0.19976555  0.38978209    -0.77500
C211        C  0.88173850  0.42886559  0.70830704     0.82500
N212        N  0.91069090  0.39444941  0.72513641    -0.75800
C213        C  0.91153505  0.38444283  0.77385741     0.85000
N214        N  0.88517251  0.41021670  0.80556129    -0.75700
C215        C  0.85684263  0.44498236  0.78939256     0.85100
N216        N  0.85501549  0.45451401  0.74048011    -0.77500
C217        C  0.03400615  0.53853069  0.22686300     0.82500
N218        N  0.00898883  0.57208211  0.20302757    -0.75800
C219        C  0.01274595  0.57632975  0.15340213     0.85000
N220        N  0.04159099  0.54683771  0.12780389    -0.75700
C221        C  0.06747050  0.51388429  0.15152317     0.85100
N222        N  0.06353090  0.50980089  0.20111304    -0.77500
O223        O  0.00240216  0.38336847  0.41863059    -0.78600
O224        O  0.96473830  0.59252524  0.46801579    -0.63300
O225        O  0.98833728  0.46143195  0.47862699    -1.09900
C226        C  0.82216084  0.45097934  0.45152841     1.08300
O227        O  0.90057475  0.58781256  0.51677944    -0.76500
O228        O  0.86954590  0.50502917  0.55219300    -0.64100
Ni229      Ni  0.04035506  0.43296396  0.44364412     1.34900
C230        C  0.88790576  0.46602275  0.56330345     0.87000
O231        O  0.04268334  0.54263845  0.48847727    -0.77000
O232        O  0.08400866  0.47855895  0.46668294    -0.87300
C233        C  0.93314944  0.61146470  0.49516699     0.86600
O234        O  0.03393706  0.46606941  0.38298135    -0.65500
O235        O  0.81961295  0.49214278  0.46825366    -0.84800
C236        C  0.01613342  0.50540065  0.37204855     0.87400
C237        C  0.08133609  0.51963272  0.48361747     1.09000
H238        H  0.91033811  0.51601844  0.42209482     0.40800
O239        O  0.91520624  0.50940182  0.45648166    -1.07500
O240        O  0.90897381  0.43974910  0.53249895    -0.64100
Ni241      Ni  0.92496487  0.44355005  0.46327392     1.26300
O242        O  0.99489950  0.53154200  0.40290130    -0.64300
O243        O  0.86076844  0.42780523  0.44707513    -0.76600
C244        C  0.97157372  0.35929833  0.44237758     0.86800
O245        O  0.93911949  0.37830671  0.46835829    -0.63800
Ni246      Ni  0.86309314  0.53788483  0.49141068     1.27400
Ni247      Ni  0.97856840  0.52717971  0.47211688     1.26100
H248        H  0.99333905  0.45476317  0.51297755     0.41400
C249        C  0.02088155  0.52104917  0.32176613    -0.11000
C250        C  0.02673689  0.53096320  0.27882048    -0.12500
C251        C  0.88241609  0.44040754  0.65681037    -0.11000
C252        C  0.88475170  0.45107054  0.61383113    -0.12500
C253        C  0.97319863  0.30940842  0.43784698    -0.11000
C254        C  0.97756084  0.26796042  0.43183162    -0.12500
C255        C  0.93462751  0.66083515  0.50390671    -0.11000
C256        C  0.93240033  0.70169932  0.51400706    -0.12500
C257        C  0.73802784  0.41931791  0.42729620    -0.11000
C258        C  0.77809583  0.43039412  0.43704593    -0.12500
C259        C  0.16474211  0.55343106  0.50724668    -0.11000
C260        C  0.12524989  0.54057144  0.49769994    -0.12500
C261        C  0.98113047  0.85810373  0.64458627    -0.14100
C262        C  0.99362466  0.83202942  0.60588950    -0.29300
H263        H  0.94422651  0.85949886  0.65718322     0.14900
H264        H  0.03082308  0.82758962  0.59537438     0.15500
C265        C  0.03729462  0.93060754  0.79256543    -0.11000
C266        C  0.03277134  0.93954515  0.83559930    -0.12500
C267        C  0.78970452  0.03708295  0.94337683    -0.11000
C268        C  0.75034477  0.05113326  0.93393086    -0.12500
C269        C  0.98452524  0.61187310  0.12742487    -0.14100
C270        C  0.96636361  0.60307462  0.08358388    -0.29300
H271        H  0.97577467  0.64422260  0.14583755     0.14900
H272        H  0.97118355  0.56881196  0.06769884     0.15500
C273        C  0.93677353  0.80213100  0.01890949    -0.11000
C274        C  0.92967783  0.76103631  0.02566625    -0.12500
C275        C  0.93480001  0.10757594  0.30829420    -0.14100
C276        C  0.92072996  0.13193156  0.34763098    -0.29300
H277        H  0.97153760  0.10905376  0.29514035     0.14900
H278        H  0.88348903  0.13307772  0.35902640     0.15500
C279        C  0.89011221  0.01503975  0.12103951    -0.11000
C280        C  0.88467940  0.02595763  0.16333835    -0.12500
C281        C  0.17251144  0.90652796  0.02819643    -0.11000
C282        C  0.13250983  0.91748579  0.01767647    -0.12500
C283        C  0.94498434  0.35021533  0.79379854    -0.14100
C284        C  0.93180540  0.32304154  0.83216995    -0.29300
H285        H  0.98180415  0.35119039  0.78089399     0.14900
H286        H  0.89456737  0.32032717  0.84331762     0.15500
C287        C  0.98909782  0.19117417  0.92740388    -0.11000
C288        C  0.98540297  0.15025022  0.93742513    -0.12500
C289        C  0.04982076  0.11387067  0.46006814    -0.14100
C290        C  0.09212524  0.12543900  0.47770217    -0.29300
H291        H  0.03756847  0.07809673  0.46442359     0.14900
H292        H  0.10706267  0.15974344  0.47010406     0.15500
C293        C  0.09449410  0.99000615  0.58885866    -0.14100
C294        C  0.10784717  0.97474353  0.63326195    -0.29300
H295        H  0.06026095  0.97952304  0.57533957     0.14900
H296        H  0.13956287  0.98875545  0.64927384     0.15500
C297        C  0.28605913  0.05009896  0.51752062    -0.11000
C298        C  0.24366379  0.05549816  0.52272697    -0.12500
C299        C  0.32334225  0.96983091  0.08114576    -0.14100
C300        C  0.31149656  0.99117589  0.12318606    -0.29300
H301        H  0.35732120  0.97763544  0.06307580     0.14900
H302        H  0.27991883  0.98048117  0.14411488     0.15500
C303        C  0.38543579  0.05889572  0.26454603    -0.11000
C304        C  0.39656779  0.05007745  0.30618641    -0.12500
C305        C  0.81684688  0.84543955  0.48232714    -0.14100
C306        C  0.85823760  0.85651925  0.50239905    -0.29300
H307        H  0.80255809  0.81042590  0.48634153     0.14900
H308        H  0.86970533  0.89269616  0.50116638     0.15500
C309        C  0.82121765  0.97842211  0.36837932    -0.14100
C310        C  0.80972749  0.99014442  0.32233544    -0.29300
H311        H  0.85464779  0.99012216  0.38281583     0.14900
H312        H  0.77889828  0.97461783  0.30603322     0.15500
C313        C  0.66891339  0.91973617  0.43026484    -0.11000
C314        C  0.62711515  0.92909955  0.43259569    -0.12500
C315        C  0.61435078  0.98896967  0.82175970    -0.14100
C316        C  0.59919529  0.01187318  0.86179304    -0.29300
H317        H  0.64897653  0.99628317  0.80496661     0.14900
H318        H  0.56282823  0.00693564  0.87522960     0.15500
C319        C  0.53567823  0.92774018  0.67979864    -0.11000
C320        C  0.52191531  0.93823097  0.63952801    -0.12500
C321        C  0.34484922  0.66403868  0.47355674    -0.14100
C322        C  0.30982199  0.63657298  0.45836654    -0.29300
H323        H  0.35086483  0.66751129  0.51247921     0.14900
H324        H  0.30133281  0.63608017  0.41978297     0.15500
C325        C  0.43193958  0.80425674  0.42227575    -0.11000
C326        C  0.44443310  0.84414709  0.42737601    -0.12500
C327        C  0.59080102  0.33390119  0.46469741    -0.14100
C328        C  0.54342814  0.33647874  0.47189929    -0.29300
H329        H  0.61075509  0.30604093  0.48212614     0.14900
H330        H  0.52415627  0.36640322  0.45766963     0.15500
C331        C  0.47867551  0.18451741  0.52475962    -0.11000
C332        C  0.46820331  0.14399986  0.51965278    -0.12500
C333        C  0.43569186  0.10906812  0.09868829    -0.14100
C334        C  0.45196414  0.15190420  0.10807738    -0.29300
H335        H  0.44305485  0.09414862  0.06290185     0.14900
H336        H  0.44096673  0.16904980  0.14174709     0.15500
C337        C  0.60550263  0.13647621  0.98043434    -0.14100
C338        C  0.56435420  0.15648799  0.96740803    -0.29300
H339        H  0.61943670  0.14293890  0.01642107     0.14900
H340        H  0.55149664  0.15234827  0.93057748     0.15500
C341        C  0.47059463  0.33894737  0.01757681    -0.11000
C342        C  0.48324243  0.29871403  0.02138983    -0.12500
C343        C  0.05726196  0.34642489  0.94697556    -0.14100
C344        C  0.09724859  0.33494663  0.96992938    -0.29300
H345        H  0.04524263  0.38249662  0.94720108     0.14900
H346        H  0.11224576  0.30014578  0.96683933     0.15500
C347        C  0.09896711  0.48196189  0.12372762    -0.14100
C348        C  0.08884416  0.46899832  0.07814725    -0.29300
H349        H  0.12912396  0.46649933  0.14200794     0.14900
H350        H  0.05610859  0.48088242  0.06180092     0.15500
C351        C  0.24280265  0.41141483  0.01908198    -0.11000
C352        C  0.28453640  0.42054878  0.01497490    -0.12500
C353        C  0.47912503  0.82441465  0.83534471    -0.14100
C354        C  0.49552120  0.86732609  0.84425177    -0.29300
H355        H  0.48950562  0.80679216  0.80177288     0.14900
H356        H  0.48810867  0.88266437  0.87982820     0.15500
C357        C  0.36782055  0.83328737  0.97440851    -0.14100
C358        C  0.32154133  0.82734994  0.98603817    -0.29300
H359        H  0.38573460  0.86472049  0.98557198     0.14900
H360        H  0.30242160  0.79803309  0.97148632     0.15500
C361        C  0.42572079  0.68120408  0.91866963    -0.11000
C362        C  0.43537475  0.64036051  0.92392820    -0.12500
C363        C  0.82773236  0.58860482  0.96610121    -0.14100
C364        C  0.82753329  0.63223510  0.98301864    -0.29300
H365        H  0.85854427  0.56646023  0.97180318     0.14900
H366        H  0.79916233  0.65614256  0.97334605     0.15500
C367        C  0.79324622  0.49733950  0.82271578    -0.14100
C368        C  0.83531287  0.47568676  0.82641148    -0.29300
H369        H  0.77131464  0.49184255  0.79122163     0.14900
H370        H  0.85463820  0.47845095  0.86018063     0.15500
C371        C  0.62037276  0.55444052  0.92977958    -0.11000
C372        C  0.66260039  0.55951759  0.92297636    -0.12500
C373        C  0.29757922  0.49082433  0.62393185    -0.14100
C374        C  0.31438457  0.51675660  0.58595809    -0.29300
H375        H  0.26139520  0.49520295  0.63788448     0.14900
H376        H  0.35181040  0.51404847  0.57545498     0.15500
C377        C  0.41711337  0.36971246  0.60266314    -0.14100
C378        C  0.43262563  0.32608331  0.61142919    -0.29300
H379        H  0.42505588  0.38613241  0.56722181     0.14900
H380        H  0.42150896  0.30747014  0.64473714     0.15500
C381        C  0.38961600  0.43566085  0.80666698    -0.11000
C382        C  0.37585147  0.42582996  0.76659419    -0.12500
C383        C  0.59609277  0.49830701  0.32537689    -0.14100
C384        C  0.58627811  0.47943130  0.36980710    -0.29300
H385        H  0.62682741  0.48632161  0.30414553     0.14900
H386        H  0.55300148  0.48809934  0.38865851     0.15500
C387        C  0.46927028  0.61462666  0.34221870    -0.14100
C388        C  0.45783878  0.65950695  0.33362929    -0.29300
H389        H  0.45855976  0.59831290  0.37698282     0.14900
H390        H  0.47253373  0.67758209  0.30141574     0.15500
C391        C  0.50785379  0.54670872  0.13916966    -0.11000
C392        C  0.51823525  0.55754884  0.18015619    -0.12500
loop_ 
_geom_bond_atom_site_label_1 
_geom_bond_atom_site_label_2 
_geom_bond_distance 
_geom_bond_site_symmetry_2 
_ccdc_geom_bond_type 
C1            N2   1.360       .  A
C1            N6   1.362       .  A
C1          C392   1.442       .  S
N2            C3   1.358       .  A
C3            N4   1.358       .  A
C3          C383   1.480       .  S
N4            C5   1.357       .  A
C5            N6   1.362       .  A
C5          C387   1.476       .  S
C7            N8   1.362       .  A
C7           N12   1.361       .  A
C7          C382   1.440       .  S
N8            C9   1.360       .  A
C9           N10   1.354       .  A
C9          C377   1.473       .  S
N10          C11   1.356       .  A
C11          N12   1.358       .  A
C11         C373   1.475       .  S
C13          N14   1.361       .  A
C13          N18   1.362       .  A
C13         C372   1.439       .  S
N14          C15   1.357       .  A
C15          N16   1.356       .  A
C15         C367   1.480       .  S
N16          C17   1.352       .  A
C17          N18   1.361       .  A
C17         C363   1.470       .  S
C19          N20   1.362       .  A
C19          N24   1.362       .  A
C19         C361   1.441       .  S
N20          C21   1.359       .  A
C21          N22   1.355       .  A
C21         C353   1.481       .  S
N22          C23   1.353       .  A
C23          N24   1.360       .  A
C23         C357   1.469       .  S
C25          N26   1.359       .  A
C25          N30   1.360   1_554  A
C25         C351   1.438       .  S
N26          C27   1.358       .  A
C27          N28   1.355       .  A
C27         C348   1.472       .  S
N28          C29   1.359   1_554  A
C29          N30   1.359       .  A
C29         C344   1.476       .  S
C31          N32   1.361   1_554  A
C31          N36   1.359       .  A
C31         C342   1.443       .  S
N32          C33   1.361   1_556  A
C33          N34   1.359       .  A
C33         C338   1.473   1_554  S
N34          C35   1.360       .  A
C35          N36   1.358       .  A
C35         C334   1.480       .  S
O37         Ni43   1.931       .  S
O37          C58   1.270       .  A
O38         Ni61   1.917   1_554  S
O38          C47   1.269       .  A
O39         Ni43   1.912       .  S
O39         Ni61   1.912       .  S
O39         Ni55   1.914       .  S
O39          H62   0.966       .  S
C40         C352   1.437       .  S
C40          O57   1.275   1_554  A
C40          O49   1.275       .  A
O41         Ni60   1.930       .  S
O41          C47   1.270       .  A
O42         Ni60   1.912       .  S
O42          C44   1.268       .  A
Ni43         O46   1.925       .  S
Ni43         O48   1.908       .  S
C44         C341   1.442       .  S
C44          O54   1.271   1_554  A
O45         Ni61   1.923       .  S
O45          C51   1.276       .  A
O46          C51   1.275       .  A
C47         C391   1.441       .  S
O48          C50   1.267       .  A
O49         Ni60   1.926       .  S
C50         C362   1.440       .  S
C50          O56   1.272       .  A
C51         C371   1.438       .  S
H52          O53   0.967       .  S
O53         Ni61   1.914   1_554  S
O53         Ni55   1.910   1_554  S
O53         Ni60   1.914       .  S
O54         Ni55   1.933       .  S
Ni55         O59   1.913       .  S
Ni55         O57   1.919       .  S
O56         Ni61   1.934       .  S
C58         C381   1.439       .  S
C58          O59   1.267       .  A
C63          N64   1.364       .  A
C63          N68   1.362       .  A
C63         C331   1.444       .  S
N64          C65   1.361       .  A
C65          N66   1.354       .  A
C65         C328   1.470       .  S
N66          C67   1.355       .  A
C67          N68   1.359       .  A
C67         C378   1.480       .  S
C69          N70   1.360       .  A
C69          N74   1.359       .  A
C69         C325   1.442       .  S
N70          C71   1.360       .  A
C71          N72   1.360       .  A
C71         C388   1.481       .  S
N72          C73   1.358       .  A
C73          N74   1.359       .  A
C73         C321   1.473       .  S
C75          N76   1.362       .  A
C75          N80   1.361       .  A
C75         C319   1.440       .  S
N76          C77   1.361       .  A
C77          N78   1.355       .  A
C77         C354   1.473       .  S
N78          C79   1.356       .  A
C79          N80   1.358       .  A
C79         C315   1.476       .  S
C81          N82   1.362       .  A
C81          N86   1.357       .  A
C81         C313   1.437       .  S
N82          C83   1.361       .  A
C83          N84   1.359       .  A
C83         C305   1.479       .  S
N84          C85   1.354       .  A
C85          N86   1.356       .  A
C85         C309   1.469       .  S
C87          N88   1.362       .  A
C87          N92   1.360       .  A
C87         C303   1.442       .  S
N88          C89   1.362       .  A
C89          N90   1.357       .  A
C89         C333   1.478       .  S
N90          C91   1.359       .  A
C91          N92   1.358       .  A
C91         C300   1.481   1_545  S
C93          N94   1.360       .  A
C93          N98   1.361       .  A
C93         C298   1.440       .  S
N94          C95   1.359       .  A
C95          N96   1.359       .  A
C95         C290   1.480       .  S
N96          C97   1.356       .  A
C97          N98   1.360       .  A
C97         C293   1.476   1_545  S
O99        Ni105   1.932   1_565  S
O99         C120   1.271       .  A
O100       Ni123   1.921       .  S
O100        C109   1.270       .  A
O101       Ni105   1.910   1_565  S
O101       Ni123   1.909   1_565  S
O101       Ni117   1.910       .  S
O101        H124   0.968       .  S
C102        C314   1.437       .  S
C102        O119   1.273       .  A
C102        O111   1.275       .  A
O103       Ni122   1.928       .  S
O103        C109   1.270   1_565  A
O104       Ni122   1.907       .  S
O104        C106   1.267       .  A
Ni105       O108   1.925       .  S
Ni105       O110   1.911       .  S
C106        C326   1.441       .  S
C106        O116   1.273       .  A
O107       Ni123   1.926       .  S
O107        C113   1.278       .  A
O108        C113   1.275       .  A
C109        C304   1.442       .  S
O110        C112   1.267       .  A
O111       Ni122   1.928       .  S
C112        C332   1.444       .  S
C112        O118   1.273       .  A
C113        C297   1.439       .  S
H114        O115   0.966       .  S
O115       Ni123   1.919       .  S
O115       Ni117   1.912   1_545  S
O115       Ni122   1.914   1_545  S
O116       Ni117   1.935       .  S
Ni117       O121   1.914       .  S
Ni117       O119   1.915       .  S
O118       Ni123   1.937       .  S
C120        C320   1.440       .  S
C120        O121   1.267       .  A
C125        N126   1.357       .  A
C125        N130   1.361   1_655  A
C125        C287   1.434       .  S
N126        C127   1.355       .  A
C127        N128   1.355       .  A
C127        C284   1.464       .  S
N128        C129   1.355   1_655  A
C129        N130   1.361       .  A
C129        C343   1.472       .  S
C131        N132   1.362       .  A
C131        N136   1.361       .  A
C131        C281   1.442       .  S
N132        C133   1.360       .  A
C133        N134   1.354       .  A
C133        C299   1.474       .  S
N134        C135   1.357       .  A
C135        N136   1.360       .  A
C135        C358   1.482   1_554  S
C137        N138   1.359       .  A
C137        N142   1.358       .  A
C137        C280   1.437       .  S
N138        C139   1.358       .  A
C139        N140   1.356       .  A
C139        C310   1.474   1_545  S
N140        C141   1.356       .  A
C141        N142   1.358       .  A
C141        C275   1.469       .  S
C143        N144   1.359       .  A
C143        N148   1.359       .  A
C143        C274   1.437       .  S
N144        C145   1.357       .  A
C145        N146   1.359       .  A
C145        C364   1.479   1_554  S
N146        C147   1.357       .  A
C147        N148   1.360       .  A
C147        C270   1.472       .  S
C149        N150   1.361       .  A
C149        N154   1.362       .  A
C149        C268   1.445       .  S
N150        C151   1.360       .  A
C151        N152   1.356       .  A
C151        C316   1.473       .  S
N152        C153   1.357       .  A
C153        N154   1.362       .  A
C153        C337   1.481       .  S
C155        N156   1.360       .  A
C155        N160   1.359       .  A
C155        C265   1.442       .  S
N156        C157   1.360       .  A
C157        N158   1.359       .  A
C157        C294   1.480       .  S
N158        C159   1.358       .  A
C159        N160   1.359       .  A
C159        C261   1.472   1_455  S
O161       Ni167   1.929       .  S
O161        C182   1.269       .  A
O162       Ni185   1.910       .  S
O162        C171   1.267       .  A
O163       Ni167   1.913   1_556  S
O163       Ni185   1.909   1_565  S
O163       Ni179   1.920       .  S
O163        H186   0.962       .  S
C164        C282   1.441       .  S
C164        O181   1.277       .  A
C164        O173   1.273   1_554  A
O165       Ni184   1.926       .  S
O165        C171   1.269   1_455  A
O166       Ni184   1.908   1_565  S
O166        C168   1.267       .  A
Ni167       O170   1.925   1_554  S
Ni167       O172   1.906       .  S
C168        C266   1.441       .  S
C168        O178   1.273       .  A
O169       Ni185   1.930       .  S
O169        C175   1.277       .  A
O170        C175   1.274   1_565  A
C171        C288   1.434       .  S
O172        C174   1.266       .  A
O173       Ni184   1.920   1_565  S
C174        C279   1.436   1_565  S
C174        O180   1.271   1_565  A
C175        C267   1.444       .  S
H176        O177   0.968   1_444  S
O177       Ni185   1.918   1_565  S
O177       Ni179   1.909       .  S
O177       Ni184   1.912   1_665  S
O178       Ni179   1.936   1_455  S
Ni179       O183   1.912       .  S
Ni179       O181   1.931   1_656  S
O180       Ni185   1.930   1_554  S
C182        C273   1.436       .  S
C182        O183   1.268   1_554  A
C187        N188   1.360       .  A
C187        N192   1.361       .  A
C187        C259   1.442       .  S
N188        C189   1.359       .  A
C189        N190   1.356       .  A
C189        C322   1.475       .  S
N190        C191   1.356       .  A
C191        N192   1.361       .  A
C191        C374   1.474       .  S
C193        N194   1.363       .  A
C193        N198   1.363       .  A
C193        C257   1.445       .  S
N194        C195   1.361       .  A
C195        N196   1.358       .  A
C195        C327   1.485       .  S
N196        C197   1.353       .  A
C197        N198   1.360       .  A
C197        C384   1.473       .  S
C199        N200   1.360       .  A
C199        N204   1.363       .  A
C199        C256   1.442       .  S
N200        C201   1.358       .  A
C201        N202   1.355       .  A
C201        C262   1.471       .  S
N202        C203   1.355       .  A
C203        N204   1.362       .  A
C203        C306   1.475       .  S
C205        N206   1.364   1_655  A
C205        N210   1.357       .  A
C205        C254   1.439       .  S
N206        C207   1.363       .  A
C207        N208   1.355   1_455  A
C207        C289   1.474       .  S
N208        C209   1.354       .  A
C209        N210   1.355       .  A
C209        C276   1.464       .  S
C211        N212   1.361       .  A
C211        N216   1.364       .  A
C211        C251   1.439       .  S
N212        C213   1.357       .  A
C213        N214   1.352       .  A
C213        C283   1.467       .  S
N214        C215   1.351       .  A
C215        N216   1.361       .  A
C215        C368   1.468       .  S
C217        N218   1.359       .  A
C217        N222   1.359       .  A
C217        C250   1.440       .  S
N218        C219   1.359       .  A
C219        N220   1.359       .  A
C219        C269   1.475   1_455  S
N220        C221   1.359       .  A
C221        N222   1.358       .  A
C221        C347   1.477       .  S
O223       Ni229   1.927       .  S
O223        C244   1.269   1_455  A
O224       Ni247   1.915       .  S
O224        C233   1.269       .  A
O225       Ni229   1.915   1_655  S
O225       Ni247   1.911       .  S
O225       Ni241   1.918       .  S
O225        H248   0.968       .  S
C226        C258   1.444       .  S
C226        O243   1.277       .  A
C226        O235   1.274       .  A
O227       Ni246   1.931       .  S
O227        C233   1.270       .  A
O228       Ni246   1.908       .  S
O228        C230   1.267       .  A
Ni229       O232   1.923       .  S
Ni229       O234   1.908       .  S
C230        C252   1.438       .  S
C230        O240   1.272       .  A
O231       Ni247   1.927   1_455  S
O231        C237   1.276       .  A
O232        C237   1.274       .  A
C233        C255   1.441       .  S
O234        C236   1.268       .  A
O235       Ni246   1.924       .  S
C236        C249   1.440       .  S
C236        O242   1.272   1_455  A
C237        C260   1.441       .  S
H238        O239   0.968       .  S
O239       Ni247   1.919       .  S
O239       Ni241   1.914       .  S
O239       Ni246   1.916       .  S
O240       Ni241   1.932       .  S
Ni241       O245   1.916       .  S
Ni241       O243   1.930       .  S
O242       Ni247   1.934       .  S
C244        C253   1.439       .  S
C244        O245   1.269       .  A
C249        C250   1.209       .  T
C251        C252   1.208       .  T
C253        C254   1.208       .  T
C255        C256   1.209       .  T
C257        C258   1.211       .  T
C259        C260   1.210       .  T
C261        C262   1.342       .  D
C261        H263   1.087       .  S
C262        H264   1.086   1_655  S
C265        C266   1.209       .  T
C267        C268   1.211       .  T
C269        C270   1.342       .  D
C269        H271   1.087       .  S
C270        H272   1.087       .  S
C273        C274   1.207       .  T
C275        C276   1.340       .  D
C275        H277   1.087       .  S
C276        H278   1.087       .  S
C279        C280   1.207       .  T
C281        C282   1.210       .  T
C283        C284   1.340       .  D
C283        H285   1.087       .  S
C284        H286   1.087       .  S
C287        C288   1.205       .  T
C289        C290   1.342       .  D
C289        H291   1.087       .  S
C290        H292   1.086       .  S
C293        C294   1.345       .  D
C293        H295   1.087       .  S
C294        H296   1.086       .  S
C297        C298   1.209       .  T
C299        C300   1.343       .  D
C299        H301   1.087       .  S
C300        H302   1.086       .  S
C303        C304   1.210       .  T
C305        C306   1.343       .  D
C305        H307   1.086       .  S
C306        H308   1.088       .  S
C309        C310   1.344       .  D
C309        H311   1.087       .  S
C310        H312   1.087       .  S
C313        C314   1.207       .  T
C315        C316   1.343   1_565  D
C315        H317   1.086       .  S
C316        H318   1.088       .  S
C319        C320   1.209       .  T
C321        C322   1.343       .  D
C321        H323   1.087       .  S
C322        H324   1.087       .  S
C325        C326   1.209       .  T
C327        C328   1.346       .  D
C327        H329   1.086       .  S
C328        H330   1.086       .  S
C331        C332   1.211       .  T
C333        C334   1.344       .  D
C333        H335   1.087       .  S
C334        H336   1.086       .  S
C337        C338   1.346       .  D
C337        H339   1.087   1_556  S
C338        H340   1.086       .  S
C341        C342   1.210       .  T
C343        C344   1.341       .  D
C343        H345   1.088       .  S
C344        H346   1.086       .  S
C347        C348   1.342       .  D
C347        H349   1.087       .  S
C348        H350   1.087       .  S
C351        C352   1.207       .  T
C353        C354   1.344       .  D
C353        H355   1.086       .  S
C354        H356   1.087       .  S
C357        C358   1.344       .  D
C357        H359   1.087       .  S
C358        H360   1.086       .  S
C361        C362   1.209       .  T
C363        C364   1.341       .  D
C363        H365   1.087       .  S
C364        H366   1.087       .  S
C367        C368   1.341       .  D
C367        H369   1.086       .  S
C368        H370   1.087       .  S
C371        C372   1.208       .  T
C373        C374   1.343       .  D
C373        H375   1.086       .  S
C374        H376   1.088       .  S
C377        C378   1.344       .  D
C377        H379   1.087       .  S
C378        H380   1.086       .  S
C381        C382   1.208       .  T
C383        C384   1.342       .  D
C383        H385   1.086       .  S
C384        H386   1.087       .  S
C387        C388   1.344       .  D
C387        H389   1.087       .  S
C388        H390   1.086       .  S
C391        C392   1.210       .  T
