geometry optimzed in LAMMPS
_audit_creation_date              2020-11-30 
_audit_creation_method            'lammps2cif' 
_symmetry_space_group_name_H-M    'P1' 
_symmetry_Int_Tables_number       1 
_symmetry_cell_setting            triclinic 
loop_ 
_symmetry_equiv_pos_as_xyz 
  x,y,z 
_cell_length_a                    26.33735748 
_cell_length_b                    42.91780819008999 
_cell_length_c                    41.75323876597245 
_cell_angle_alpha                 89.8924530950743 
_cell_angle_beta                  89.72061576910242 
_cell_angle_gamma                 89.02911139685737 
loop_ 
_atom_site_label 
_atom_site_type_symbol 
_atom_site_fract_x 
_atom_site_fract_y 
_atom_site_fract_z 
_atom_site_charge 
O1          O  0.64423149  0.32821204  0.29336428    -0.82900
C2          C  0.73927030  0.33388845  0.17086588     0.96400
O3          O  0.76174960  0.32921418  0.19700607    -0.72100
O4          O  0.72664113  0.37342151  0.23408388    -0.75600
Al5        Al  0.73450720  0.33063129  0.23969014     1.49000
C6          C  0.69300718  0.39134507  0.24568765     0.91700
O7          O  0.58276988  0.35776021  0.21660120    -0.81900
O8          O  0.61721322  0.27079698  0.22015994    -0.75400
Al9        Al  0.61842119  0.34099449  0.25260069     1.90100
O10         O  0.59819260  0.32070276  0.18209630    -0.74500
O11         O  0.71355304  0.27249861  0.20192784    -0.74300
O12         O  0.69326648  0.32677894  0.16793042    -0.80000
O13         O  0.74862853  0.28803741  0.24664525    -0.78200
O14         O  0.66939261  0.32374351  0.22973889    -1.14300
O15         O  0.72495915  0.33480987  0.28408742    -0.73500
C16         C  0.68868524  0.33213120  0.30333650     0.97200
C17         C  0.57370044  0.34452355  0.19051118     0.93600
Al18       Al  0.65684498  0.29982439  0.19593767     1.55600
O19         O  0.65078321  0.38123492  0.25585486    -0.78200
C20         C  0.74172114  0.26743094  0.22580556     0.97700
C21         C  0.58205800  0.27622845  0.24032651     0.92600
O22         O  0.57769619  0.30324933  0.25283784    -0.83500
O23         O  0.35600350  0.32622638  0.99294556    -0.82900
C24         C  0.26573640  0.31860128  0.11542993     0.96400
O25         O  0.24066611  0.31597658  0.09001342    -0.72100
O26         O  0.27357128  0.36511509  0.05993999    -0.75600
Al27       Al  0.26632899  0.32334173  0.04755102     1.49000
C28         C  0.30523127  0.38425107  0.04908696     0.91700
O29         O  0.41175912  0.34734265  0.07457262    -0.81900
O30         O  0.38450098  0.26034617  0.05556253    -0.75400
Al31       Al  0.38095394  0.33464879  0.03537359     1.90100
O32         O  0.40509277  0.30377681  0.10108429    -0.74500
O33         O  0.28901591  0.25945845  0.07538292    -0.74300
O34         O  0.31073491  0.30839514  0.11655892    -0.80000
O35         O  0.25298254  0.28211436  0.03398010    -0.78200
O36         O  0.33142422  0.31425264  0.05537234    -1.14300
O37         O  0.27572124  0.33416634  0.00451364    -0.73500
C38         C  0.31147186  0.33391843  0.48462071     0.97200
C39         C  0.42191311  0.33089952  0.09880398     0.93600
Al40       Al  0.34588814  0.28528230  0.08464624     1.55600
O41         O  0.34618393  0.37480018  0.03599414    -0.78200
C42         C  0.25932022  0.25857507  0.05172581     0.97700
C43         C  0.42077870  0.26924449  0.03796858     0.92600
O44         O  0.42524705  0.29799259  0.03120608    -0.83500
O45         O  0.15489951  0.38411338  0.24059725    -0.82900
C46         C  0.24106576  0.38676540  0.36557414     0.96400
O47         O  0.26514812  0.38537190  0.33953437    -0.72100
O48         O  0.22872441  0.33861438  0.30773395    -0.75600
Al49       Al  0.24081004  0.38054081  0.29672546     1.49000
C50         C  0.19610985  0.32120918  0.29533362     0.91700
O51         O  0.09213167  0.35935154  0.31828057    -0.81900
O52         O  0.12284123  0.44617409  0.30580880    -0.75400
Al53       Al  0.12658350  0.37345142  0.28126884     1.90100
O54         O  0.10216643  0.39971915  0.34950686    -0.74500
O55         O  0.21850684  0.44552752  0.32469036    -0.74300
O56         O  0.19598257  0.39682482  0.36602347    -0.80000
O57         O  0.25883521  0.42184929  0.28514567    -0.78200
O58         O  0.17595160  0.39146838  0.30373128    -1.14300
O59         O  0.23349351  0.37190657  0.25258477    -0.73500
C60         C  0.19927788  0.37618361  0.23205714     0.97200
C61         C  0.08214092  0.37389295  0.34368166     0.93600
Al62       Al  0.16123610  0.41968507  0.33384596     1.55600
O63         O  0.15855508  0.33255787  0.28019788    -0.78200
C64         C  0.25097186  0.44573427  0.30223567     0.97700
C65         C  0.08799851  0.43878158  0.28671260     0.92600
O66         O  0.08414583  0.41063535  0.27809998    -0.83500
O67         O  0.86672682  0.37766368  0.04274870    -0.82900
C68         C  0.77130622  0.37384142  0.42082434     0.96400
O69         O  0.74859272  0.37791665  0.44721839    -0.72100
O70         O  0.78091457  0.33438082  0.48650622    -0.75600
Al71       Al  0.77511784  0.37780361  0.49012800     1.49000
C72         C  0.81539330  0.31595849  0.49614561     0.91700
O73         O  0.92533671  0.34871284  0.46412486    -0.81900
O74         O  0.89123794  0.43626697  0.47004913    -0.75400
Al75       Al  0.89124239  0.36536771  0.50111637     1.90100
O76         O  0.91195511  0.38743252  0.43139419    -0.74500
O77         O  0.79599915  0.43500220  0.45046763    -0.74300
O78         O  0.81727691  0.38094582  0.41757875    -0.80000
O79         O  0.76226326  0.42116691  0.49587320    -0.78200
O80         O  0.84014837  0.38348713  0.47924067    -1.14300
O81         O  0.78516990  0.37537963  0.03442720    -0.73500
C82         C  0.82189319  0.37662064  0.05328587     0.97200
C83         C  0.93466147  0.36257890  0.43830847     0.93600
Al84       Al  0.85296474  0.40769262  0.44544162     1.55600
O85         O  0.85865045  0.32557222  0.50440519    -0.78200
C86         C  0.76882954  0.44141232  0.47444076     0.97700
C87         C  0.92607260  0.43027053  0.49008107     0.92600
O88         O  0.93198794  0.40281147  0.50124156    -0.83500
O89         O  0.08321608  0.04961746  0.00540494    -0.82900
C90         C  0.22720352  0.07871347  0.10229297     0.96400
O91         O  0.19526232  0.05715785  0.10307929    -0.72100
O92         O  0.10393229  0.07824695  0.09453041    -0.75600
Al93       Al  0.14128345  0.04588998  0.07475645     1.49000
C94         C  0.06595287  0.09186923  0.08263812     0.91700
O95         O  0.13428055  0.12876950  0.03088923    -0.81900
O96         O  0.21901671  0.06347246  0.99030454    -0.75400
Al97       Al  0.11109306  0.08872649  0.01884520     1.90100
O98         O  0.21593831  0.11909184  0.02287929    -0.74500
O99         O  0.24708646  0.03381889  0.04354289    -0.74300
O100        O  0.23943538  0.09047563  0.07578747    -0.80000
O101        O  0.17732799  0.01100022  0.05923382    -0.78200
O102        O  0.15932573  0.06992148  0.04228314    -1.14300
O103        O  0.08265990  0.02907902  0.05358561    -0.73500
C104        C  0.06730085  0.02908850  0.02479905     0.97200
C105        C  0.17940441  0.13798619  0.02784559     0.93600
Al106      Al  0.22482172  0.07598321  0.03380621     1.55600
O107        O  0.06055950  0.09288311  0.05258804    -0.78200
C108        C  0.22350768  0.00951346  0.05152759     0.97700
C109        C  0.19247660  0.07883506  0.47075372     0.92600
O110        O  0.15016108  0.09043154  0.97955242    -0.83500
O111        O  0.92626054  0.05813047  0.26334106    -0.82900
C112        C  0.76170781  0.07598945  0.17811077     0.96400
O113        O  0.79087340  0.05223103  0.17765982    -0.72100
O114        O  0.88342792  0.07142839  0.17473374    -0.75600
Al115      Al  0.85136540  0.04352451  0.20265466     1.49000
C116        C  0.91949523  0.08923260  0.18055842     0.91700
O117        O  0.85950583  0.13304240  0.23396417    -0.81900
O118        O  0.79172902  0.07080884  0.28869497    -0.75400
Al119      Al  0.89005392  0.09464656  0.24807838     1.90100
O120        O  0.78362005  0.12302109  0.25241677    -0.74500
O121        O  0.75197225  0.03830890  0.24098334    -0.74300
O122        O  0.75510581  0.09115497  0.20355586    -0.80000
O123        O  0.82028028  0.01195743  0.22697538    -0.78200
O124        O  0.83937735  0.07245087  0.23220163    -1.14300
O125        O  0.91448072  0.02909109  0.22094363    -0.73500
C126        C  0.93751556  0.03408860  0.24698055     0.97200
C127        C  0.81466928  0.14182950  0.24070240     0.93600
Al128      Al  0.77593891  0.07993240  0.24530643     1.55600
O129        O  0.93013582  0.09586357  0.20923996    -0.78200
C130        C  0.77547308  0.01275477  0.23753275     0.97700
C131        C  0.82217787  0.08737315  0.30434087     0.92600
O132        O  0.86012155  0.09936443  0.29041706    -0.83500
O133        O  0.41867239  0.15985653  0.25676131    -0.82900
C134        C  0.26954891  0.12690216  0.35047448     0.96400
O135        O  0.30017635  0.14914680  0.35222866    -0.72100
O136        O  0.39387834  0.13274211  0.34586384    -0.75600
Al137      Al  0.35396583  0.16280639  0.32466479     1.49000
C138        C  0.43417787  0.12068394  0.33517766     0.91700
O139        O  0.37082121  0.07897860  0.28243201    -0.81900
O140        O  0.28404111  0.14162428  0.23923974    -0.75400
Al141      Al  0.39189967  0.11994108  0.27018696     1.90100
O142        O  0.28934772  0.08597802  0.27237134    -0.74500
O143        O  0.24931138  0.17046657  0.29045564    -0.74300
O144        O  0.25947558  0.11486308  0.32390792    -0.80000
O145        O  0.31494890  0.19599934  0.30817467    -0.78200
O146        O  0.34045654  0.13756617  0.29224698    -1.14300
O147        O  0.41189002  0.18182592  0.30407016    -0.73500
C148        C  0.43071543  0.18148845  0.27604315     0.97200
C149        C  0.32680967  0.06816681  0.27858329     0.93600
Al150      Al  0.27608755  0.12913952  0.28229623     1.55600
O151        O  0.44024769  0.11781218  0.30526382    -0.78200
C152        C  0.26997614  0.19567020  0.29829753     0.97700
C153        C  0.31292787  0.12714889  0.22012757     0.92600
O154        O  0.35558101  0.11672949  0.22965412    -0.83500
O155        O  0.58788064  0.15333072  0.01653558    -0.82900
C156        C  0.74694024  0.13074577  0.42713990     0.96400
O157        O  0.71826066  0.15469418  0.42725085    -0.72100
O158        O  0.62369621  0.13708061  0.42632148    -0.75600
Al159      Al  0.65909919  0.16444169  0.45340580     1.49000
C160        C  0.58459481  0.12227980  0.43401413     0.91700
O161        O  0.64379250  0.07576387  0.48657676    -0.81900
O162        O  0.72137307  0.13474274  0.03889366    -0.75400
Al163      Al  0.61863499  0.11530913  0.50072508     1.90100
O164        O  0.72306590  0.08286427  0.50081189    -0.74500
O165        O  0.75997700  0.16752611  0.49072468    -0.74300
O166        O  0.75328153  0.11505643  0.45232595    -0.80000
O167        O  0.69274488  0.19512514  0.47702755    -0.78200
O168        O  0.67057241  0.13534581  0.48304267    -1.14300
O169        O  0.59726405  0.18047756  0.47261872    -0.73500
C170        C  0.57558338  0.17651488  0.49945070     0.97200
C171        C  0.68809081  0.06529758  0.49175607     0.93600
Al172      Al  0.73410150  0.12601053  0.49465743     1.55600
O173        O  0.57622232  0.11596356  0.46313302    -0.78200
C174        C  0.73729038  0.19348096  0.48768191     0.97700
C175        C  0.68948854  0.11978264  0.05528261     0.92600
O176        O  0.64987449  0.10944805  0.04223162    -0.83500
C177        C  0.46038362  0.10767855  0.39062941    -0.10300
C178        C  0.47479461  0.11266888  0.35856248     0.05900
C179        C  0.52696664  0.11532406  0.35134938    -0.04100
C180        C  0.56240958  0.11621069  0.37628829    -0.08500
C181        C  0.54726631  0.11437407  0.40866274     0.05000
C182        C  0.49563842  0.10850978  0.41554260    -0.03500
Br183      Br  0.46862073  0.10451010  0.45819727    -0.03200
H184        H  0.42064179  0.10496385  0.39667051     0.08900
H185        H  0.60191334  0.11993942  0.37028452     0.06900
Br186      Br  0.55226233  0.12102180  0.30854462    -0.03700
C187        C  0.76373892  0.08851271  0.38787430    -0.10300
C188        C  0.77082252  0.11963404  0.39693349     0.05900
C189        C  0.79845569  0.13922656  0.37642713    -0.04100
C190        C  0.81794459  0.12754320  0.34736997    -0.08500
C191        C  0.80933217  0.09658459  0.33777531     0.05000
C192        C  0.78233284  0.07694903  0.35865995    -0.03500
Br193      Br  0.76934646  0.03419569  0.34859011    -0.03200
H194        H  0.74154939  0.07339248  0.40298360     0.08900
H195        H  0.83782980  0.14323405  0.33149403     0.06900
Br196      Br  0.81032609  0.18199570  0.38697311    -0.03700
C197        C  0.69346403  0.07949683  0.09806465    -0.10300
C198        C  0.70169386  0.11056347  0.08872777     0.05900
C199        C  0.72646501  0.13048357  0.11018397    -0.04100
C200        C  0.74340178  0.11901026  0.13982440    -0.08500
C201        C  0.73767042  0.08751286  0.14826790     0.05000
C202        C  0.71182754  0.06778620  0.12725823    -0.03500
Br203      Br  0.70042457  0.02484097  0.13747031    -0.03200
H204        H  0.67475575  0.06378434  0.08188094     0.08900
H205        H  0.76316155  0.13449273  0.15581285     0.06900
Br206      Br  0.73810818  0.17344448  0.10028069    -0.03700
C207        C  0.29458598  0.10841050  0.13136840    -0.10300
C208        C  0.24974877  0.09076634  0.13261440     0.05900
C209        C  0.22637913  0.08631306  0.16289585    -0.04100
C210        C  0.24643525  0.10030592  0.19016191    -0.08500
C211        C  0.29173027  0.11700041  0.18902786     0.05000
C212        C  0.31622676  0.12077411  0.15932014    -0.03500
Br213      Br  0.37799437  0.14350065  0.15580215    -0.03200
H214        H  0.31342363  0.11224428  0.10861982     0.08900
H215        H  0.22774576  0.09660544  0.21301090     0.06900
Br216      Br  0.16808024  0.06070045  0.17002761    -0.03700
C217        C  0.17915906  0.09447869  0.41349550    -0.10300
C218        C  0.21304449  0.08706036  0.43852266     0.05900
C219        C  0.26542624  0.09279297  0.43366031    -0.04100
C220        C  0.28222218  0.10595700  0.40494120    -0.08500
C221        C  0.24842596  0.11351455  0.38027543     0.05000
C222        C  0.19644951  0.10733459  0.38449925    -0.03500
Br223      Br  0.14727906  0.11847707  0.35253766    -0.03200
H224        H  0.13881428  0.09105512  0.41681542     0.08900
H225        H  0.32231639  0.11048611  0.40187291     0.06900
Br226      Br  0.31665099  0.08621257  0.46565015    -0.03700
C227        C  0.00087162  0.11081624  0.16017486    -0.10300
C228        C  0.95198642  0.09993491  0.15362581     0.05900
C229        C  0.93779749  0.09606140  0.12115581    -0.04100
C230        C  0.97487946  0.09689487  0.09706989    -0.08500
C231        C  0.02550062  0.10288876  0.10461416     0.05000
C232        C  0.03717433  0.11301519  0.13575531    -0.03500
Br233      Br  0.10219266  0.12988773  0.14582087    -0.03200
H234        H  0.01188876  0.11602802  0.18451640     0.08900
H235        H  0.96473947  0.09058819  0.07284073     0.06900
Br236      Br  0.86918758  0.08898075  0.10781043    -0.03700
C237        C  0.70577999  0.47807716  0.49961023    -0.10300
C238        C  0.74490093  0.47276183  0.47700832     0.05900
C239        C  0.76170144  0.99809245  0.45812039    -0.04100
C240        C  0.74040254  0.02756045  0.46273821    -0.08500
C241        C  0.70204849  0.03280461  0.48533889     0.05000
C242        C  0.68435461  0.00791150  0.50389501    -0.03500
Br243      Br  0.63464541  0.51416624  0.53698699    -0.03200
H244        H  0.69249284  0.45916572  0.51449456     0.08900
H245        H  0.75552374  0.04698395  0.44943451     0.06900
Br246      Br  0.81605201  0.99597747  0.42712726    -0.03700
C247        C  0.75894818  0.27518722  0.51614094    -0.10300
C248        C  0.80277637  0.28284755  0.49881444     0.05900
C249        C  0.82905849  0.25951610  0.48147079    -0.04100
C250        C  0.80918285  0.22944895  0.47993182    -0.08500
C251        C  0.76319269  0.22255696  0.49534371     0.05000
C252        C  0.73918834  0.24528628  0.51464777    -0.03500
Br253      Br  0.67886789  0.23667597  0.53893451    -0.03200
H254        H  0.73894285  0.29291705  0.52997175     0.08900
H255        H  0.82779447  0.21207151  0.46495256     0.06900
Br256      Br  0.88841744  0.26855361  0.45658256    -0.03700
C257        C  0.97053254  0.48036344  0.47805292    -0.10300
C258        C  0.96081657  0.45602187  0.99971502     0.05900
C259        C  0.98615477  0.45627262  0.02943638    -0.04100
C260        C  0.02036856  0.47999346  0.03652664    -0.08500
C261        C  0.03032270  0.00450006  0.01493382     0.05000
C262        C  0.00431282  0.50443657  0.48535634    -0.03500
Br263      Br  0.01081366  0.03695069  0.45401970    -0.03200
H264        H  0.95145672  0.48088129  0.45512233     0.08900
H265        H  0.03915864  0.47920383  0.05953469     0.06900
Br266      Br  0.97334927  0.42629508  0.06260562    -0.03700
C267        C  0.27967797  0.48646933  0.26423489    -0.10300
C268        C  0.27856704  0.47477324  0.29560786     0.05900
C269        C  0.29996701  0.49245576  0.32044960    -0.04100
C270        C  0.31934981  0.02204412  0.31392729    -0.08500
C271        C  0.31717586  0.03461810  0.28292862     0.05000
C272        C  0.29818824  0.01627476  0.25786718    -0.03500
Br273      Br  0.29606352  0.03104631  0.21463427    -0.03200
H274        H  0.26371296  0.47305734  0.24487905     0.08900
H275        H  0.33372184  0.03593635  0.33343448     0.06900
Br276      Br  0.30353555  0.47725782  0.36367462    -0.03700
C277        C  0.20534324  0.26966067  0.26877831    -0.10300
C278        C  0.20429249  0.28723765  0.29713352     0.05900
C279        C  0.21795818  0.27283035  0.32621779    -0.04100
C280        C  0.23685510  0.24225078  0.32619617    -0.08500
C281        C  0.24139475  0.22537372  0.29757705     0.05000
C282        C  0.22385118  0.23881775  0.26882380    -0.03500
Br283      Br  0.22978720  0.21729700  0.22873341    -0.03200
H284        H  0.19494394  0.28055434  0.24625591     0.08900
H285        H  0.24941353  0.23184614  0.34853274     0.06900
Br286      Br  0.21115958  0.29392972  0.36654100    -0.03700
C287        C  0.05024975  0.49319433  0.28959020    -0.10300
C288        C  0.05042455  0.46332419  0.27539982     0.05900
C289        C  0.01346831  0.45767816  0.25161879    -0.04100
C290        C  0.97791732  0.48100133  0.24321904    -0.08500
C291        C  0.97719579  0.01065174  0.25769848     0.05000
C292        C  0.01449257  0.01658850  0.28113472    -0.03500
Br293      Br  0.02031110  0.05622693  0.30194381    -0.03200
H294        H  0.07800699  0.49848508  0.30775574     0.08900
H295        H  0.95010600  0.47560023  0.22511593     0.06900
Br296      Br  0.00864589  0.41904762  0.22870668    -0.03700
C297        C  0.06121411  0.35927922  0.39943934    -0.10300
C298        C  0.04640948  0.36108644  0.36721721     0.05900
C299        C  0.99603625  0.35444137  0.35894085    -0.04100
C300        C  0.96006956  0.35004252  0.38319608    -0.08500
C301        C  0.97381815  0.35177124  0.41562158     0.05000
C302        C  0.02536886  0.35417671  0.42363510    -0.03500
Br303      Br  0.04732190  0.35543327  0.46733597    -0.03200
H304        H  0.10022251  0.36373273  0.40593028     0.08900
H305        H  0.92035213  0.34845820  0.37680105     0.06900
Br306      Br  0.97280210  0.35604648  0.31544303    -0.03700
C307        C  0.23208714  0.21795859  0.01353871    -0.10300
C308        C  0.23238530  0.22955267  0.04496140     0.05900
C309        C  0.20983149  0.21209141  0.06975556    -0.04100
C310        C  0.18895069  0.18316451  0.06301794    -0.08500
C311        C  0.19125925  0.17089679  0.03202672     0.05000
C312        C  0.21250160  0.18852805  0.00705019    -0.03500
Br313      Br  0.21684459  0.17281659  0.96410663    -0.03200
H314        H  0.24940127  0.23110814  0.99431402     0.08900
H315        H  0.17329171  0.16943103  0.08240014     0.06900
Br316      Br  0.20686664  0.22626968  0.11331408    -0.03700
C317        C  0.26057324  0.42755474  0.07658639    -0.10300
C318        C  0.29204239  0.41786838  0.05117290     0.05900
C319        C  0.30481147  0.43973148  0.02714389    -0.04100
C320        C  0.28372222  0.46999607  0.02817097    -0.08500
C321        C  0.24977876  0.47885845  0.05266102     0.05000
C322        C  0.23961649  0.45755259  0.07758756    -0.03500
Br323      Br  0.19830724  0.46792347  0.11425839    -0.03200
H324        H  0.25122477  0.41138351  0.09561901     0.08900
H325        H  0.29218541  0.98621845  0.00907324     0.06900
Br326      Br  0.34718783  0.42936200  0.99104588    -0.03700
C327        C  0.46505214  0.21744409  0.04406309    -0.10300
C328        C  0.45970701  0.24561928  0.02691212     0.05900
C329        C  0.49261254  0.25047975  0.00057422    -0.04100
C330        C  0.52993646  0.22797852  0.99260258    -0.06100
C331        C  0.53581404  0.19994285  0.01001987     0.05000
C332        C  0.50213186  0.19482145  0.03598601    -0.03500
Br333      Br  0.50272275  0.15732941  0.06121574    -0.03200
H334        H  0.44034203  0.21294108  0.06430528     0.08900
H335        H  0.55446638  0.23244293  0.47244387     0.06900
Br336      Br  0.48741905  0.28638969  0.97318827    -0.03700
C337        C  0.27611842  0.35723266  0.15835964    -0.10300
C338        C  0.24452395  0.33593726  0.14307890     0.05900
C339        C  0.19419442  0.33276068  0.15408745    -0.04100
C340        C  0.17801648  0.34866682  0.18175923    -0.08500
C341        C  0.21129112  0.36794714  0.19854382     0.05000
C342        C  0.26009434  0.37310518  0.18581470    -0.03500
Br343      Br  0.30684362  0.40121454  0.20523120    -0.03200
H344        H  0.31387131  0.36136039  0.14901881     0.08900
H345        H  0.14055917  0.34422324  0.19140325     0.06900
Br346      Br  0.14760736  0.30512315  0.13407143    -0.03700
C347        C  0.26905618  0.37488606  0.45337775    -0.10300
C348        C  0.29988248  0.34782903  0.45303999     0.05900
C349        C  0.31548036  0.33527842  0.42345087    -0.04100
C350        C  0.29818285  0.34926684  0.39488990    -0.08500
C351        C  0.26505727  0.37549344  0.39552185     0.05000
C352        C  0.25205403  0.38884540  0.42524993    -0.03500
Br353      Br  0.21252056  0.42670053  0.42937724    -0.03200
H354        H  0.25765326  0.38531036  0.47598575     0.08900
H355        H  0.30855442  0.33867775  0.37220013     0.06900
Br356      Br  0.35572555  0.29773604  0.42097454    -0.03700
C357        C  0.83127610  0.19877736  0.23927056    -0.10300
C358        C  0.79723446  0.17416341  0.23563024     0.05900
C359        C  0.74571623  0.18103247  0.22845364    -0.04100
C360        C  0.72952628  0.21169015  0.22547805    -0.08500
C361        C  0.76293756  0.23611216  0.22974175     0.05000
C362        C  0.81427849  0.22979294  0.23667591    -0.03500
Br363      Br  0.86241369  0.26245287  0.24144749    -0.03200
H364        H  0.87078415  0.19391801  0.24475722     0.08900
H365        H  0.68998296  0.21657953  0.22008673     0.06900
Br366      Br  0.69408123  0.15072139  0.22137770    -0.03700
C367        C  0.75277746  0.43037946  0.26417257    -0.10300
C368        C  0.70664805  0.42416225  0.24895673     0.05900
C369        C  0.68020417  0.44836828  0.23319084    -0.04100
C370        C  0.70180202  0.47796138  0.23128320    -0.08500
C371        C  0.74980943  0.48341961  0.24456958     0.05000
C372        C  0.77446586  0.45968948  0.26210435    -0.03500
Br373      Br  0.83799149  0.46603672  0.28337403    -0.03200
H374        H  0.77315279  0.41186465  0.27660621     0.08900
H375        H  0.68259429  0.49615906  0.21772441     0.06900
Br376      Br  0.61793172  0.44114715  0.21100560    -0.03700
C377        C  0.50218916  0.20087589  0.24080858    -0.10300
C378        C  0.46860749  0.20613790  0.26666341     0.05900
C379        C  0.47366749  0.23454234  0.28377472    -0.04100
C380        C  0.51080581  0.25625675  0.27494682    -0.08500
C381        C  0.54455246  0.25106850  0.24916590     0.05000
C382        C  0.53959190  0.22260949  0.23204549    -0.03500
Br383      Br  0.58117900  0.21155092  0.19576993    -0.03200
H384        H  0.49975123  0.17941987  0.22732490     0.08900
H385        H  0.51299730  0.27766864  0.28852008     0.06900
Br386      Br  0.43027838  0.24653331  0.31897987    -0.03700
C387        C  0.68179064  0.36577067  0.35085535    -0.10300
C388        C  0.69929004  0.33758236  0.33738777     0.05900
C389        C  0.73751110  0.32023815  0.35318495    -0.04100
C390        C  0.75935313  0.33187869  0.38111777    -0.08500
C391        C  0.74381114  0.36086656  0.39349952     0.05000
C392        C  0.70398838  0.37758260  0.37863900    -0.03500
Br393      Br  0.68348782  0.41835774  0.39307623    -0.03200
H394        H  0.65388397  0.37992993  0.33823085     0.08900
H395        H  0.78968417  0.31874901  0.39264239     0.06900
Br396      Br  0.76262169  0.28133096  0.33638718    -0.03700
C397        C  0.74435119  0.37410168  0.12850980    -0.10300
C398        C  0.76667119  0.34829640  0.14384910     0.05900
C399        C  0.81422250  0.33690914  0.13291073    -0.04100
C400        C  0.83573404  0.34925504  0.10489506    -0.08500
C401        C  0.81060007  0.37306939  0.08775030     0.05000
C402        C  0.76608314  0.38668414  0.10087579    -0.03500
Br403      Br  0.73259356  0.42183232  0.08116925    -0.03200
H404        H  0.70939331  0.38420993  0.13781704     0.08900
H405        H  0.86975782  0.33836324  0.09503078     0.06900
Br406      Br  0.84835097  0.30235155  0.15319056    -0.03700
C407        C  0.48380776  0.34072310  0.17983227    -0.10300
C408        C  0.53008328  0.35351583  0.17080791     0.05900
C409        C  0.53678743  0.36399845  0.13915701    -0.04100
C410        C  0.49891703  0.35904813  0.11632539    -0.08500
C411        C  0.45512201  0.34252584  0.12450074     0.05000
C412        C  0.44685422  0.33453954  0.15704014    -0.03500
Br413      Br  0.38853761  0.31274325  0.17229633    -0.03200
H414        H  0.47873806  0.33213504  0.20406756     0.08900
H415        H  0.50573342  0.36570141  0.09165476     0.06900
Br416      Br  0.59907519  0.38236251  0.12567747    -0.03700
O417        O  0.64436551  0.32860252  0.79336701    -0.82900
C418        C  0.73935509  0.33422519  0.67085872     0.96400
O419        O  0.76184079  0.32966711  0.69701613    -0.72100
O420        O  0.72668922  0.37389376  0.73406594    -0.75600
Al421      Al  0.73464150  0.33110386  0.73969868     1.49000
C422        C  0.69306225  0.39179053  0.74572195     0.91700
O423        O  0.58293208  0.35815622  0.71660446    -0.81900
O424        O  0.61747473  0.27116713  0.72030847    -0.75400
Al425      Al  0.61854860  0.34140420  0.75262482     1.90100
O426        O  0.59829932  0.32100850  0.68218525    -0.74500
O427        O  0.71375931  0.27290457  0.70201522    -0.74300
O428        O  0.69335364  0.32710571  0.66794613    -0.80000
O429        O  0.74887235  0.28852248  0.74668848    -0.78200
O430        O  0.66954028  0.32416040  0.72977187    -1.14300
O431        O  0.72507905  0.33528195  0.78408146    -0.73500
C432        C  0.68882361  0.33251658  0.80332999     0.97200
C433        C  0.57382506  0.34485345  0.69055390     0.93600
Al434      Al  0.65700485  0.30018313  0.69601762     1.55600
O435        O  0.65087292  0.38164987  0.75590635    -0.78200
C436        C  0.74195232  0.26788158  0.72588761     0.97700
C437        C  0.58227622  0.27661899  0.74043617     0.92600
O438        O  0.57782848  0.30366523  0.75287208    -0.83500
O439        O  0.35601235  0.32621005  0.49304650    -0.82900
C440        C  0.26587534  0.31871161  0.61557234     0.96400
O441        O  0.24077928  0.31601762  0.59017352    -0.72100
O442        O  0.27366723  0.36512337  0.56004630    -0.75600
Al443      Al  0.26640961  0.32335058  0.54769370     1.49000
C444        C  0.30532877  0.38425798  0.54919252     0.91700
O445        O  0.41190515  0.34735581  0.57462412    -0.81900
O446        O  0.38456556  0.26034652  0.55576233    -0.75400
Al447      Al  0.38102458  0.33463722  0.53546136     1.90100
O448        O  0.40521613  0.30384190  0.60121715    -0.74500
O449        O  0.28908123  0.25949525  0.57559958    -0.74300
O450        O  0.31087202  0.30850508  0.61670626    -0.80000
O451        O  0.25306872  0.28210405  0.53416179    -0.78200
O452        O  0.33151010  0.31426806  0.55550333    -1.14300
O453        O  0.27574766  0.33416687  0.50464038    -0.73500
C454        C  0.31146454  0.33392238  0.98450713     0.97200
C455        C  0.42206057  0.33095532  0.59888293     0.93600
Al456      Al  0.34598449  0.28533332  0.58481753     1.55600
O457        O  0.34627551  0.37480438  0.53608908    -0.78200
C458        C  0.25941017  0.25857671  0.55192855     0.97700
C459        C  0.42080020  0.26920419  0.53811031     0.92600
O460        O  0.42526918  0.29794444  0.53129569    -0.83500
O461        O  0.15514304  0.38452491  0.74063292    -0.82900
C462        C  0.24144637  0.38710061  0.86553933     0.96400
O463        O  0.26554677  0.38572092  0.83950539    -0.72100
O464        O  0.22902955  0.33900157  0.80770385    -0.75600
Al465      Al  0.24116295  0.38092450  0.79670535     1.49000
C466        C  0.19636423  0.32161605  0.79532956     0.91700
O467        O  0.09247935  0.35985059  0.81842005    -0.81900
O468        O  0.12335721  0.44667232  0.80582628    -0.75400
Al469      Al  0.12688084  0.37390654  0.78134738     1.90100
O470        O  0.10258074  0.40027527  0.84955330    -0.74500
O471        O  0.21906540  0.44592074  0.82469305    -0.74300
O472        O  0.19640444  0.39722899  0.86599775    -0.80000
O473        O  0.25926969  0.42221772  0.78512000    -0.78200
O474        O  0.17632955  0.39190248  0.80374846    -1.14300
O475        O  0.23375566  0.37231271  0.75257886    -0.73500
C476        C  0.19951285  0.37658396  0.73207038     0.97200
C477        C  0.08250436  0.37445171  0.84379281     0.93600
Al478      Al  0.16171554  0.42014573  0.83385679     1.55600
O479        O  0.15877225  0.33298836  0.78025012    -0.78200
C480        C  0.25149479  0.44610425  0.80221937     0.97700
C481        C  0.08842145  0.43927375  0.78679697     0.92600
O482        O  0.08450032  0.41112083  0.77821477    -0.83500
O483        O  0.86693912  0.37755596  0.54264188    -0.82900
C484        C  0.77131470  0.37394400  0.92089607     0.96400
O485        O  0.74853410  0.37796560  0.94727606    -0.72100
O486        O  0.78094098  0.33443833  0.98653716    -0.75600
Al487      Al  0.77497076  0.37785055  0.99019534     1.49000
C488        C  0.81548431  0.31605211  0.99615752     0.91700
O489        O  0.92536327  0.34904031  0.96417385    -0.81900
O490        O  0.89070528  0.43654012  0.97025714    -0.75400
Al491      Al  0.89112841  0.36557512  0.00119388     1.90100
O492        O  0.91190702  0.38784215  0.93155971    -0.74500
O493        O  0.79555787  0.43506067  0.95055630    -0.74300
O494        O  0.81727377  0.38109169  0.91768521    -0.80000
O495        O  0.76192486  0.42119987  0.99597196    -0.78200
O496        O  0.83997937  0.38363928  0.97933786    -1.14300
O497        O  0.78535835  0.37535542  0.53436372    -0.73500
C498        C  0.82211823  0.37657029  0.55319783     0.97200
C499        C  0.93474110  0.36302016  0.93842554     0.93600
Al500      Al  0.85271486  0.40790787  0.94557958     1.55600
O501        O  0.85871273  0.32571562  0.00441698    -0.78200
C502        C  0.76834767  0.44144005  0.97451459     0.97700
C503        C  0.92560516  0.43055894  0.99024684     0.92600
O504        O  0.93166654  0.40309136  0.00135886    -0.83500
O505        O  0.08326988  0.04954809  0.50548772    -0.82900
C506        C  0.22715593  0.07885027  0.60240418     0.96400
O507        O  0.19520269  0.05729367  0.60323215    -0.72100
O508        O  0.10383809  0.07826286  0.59458866    -0.75600
Al509      Al  0.14127124  0.04591533  0.57487511     1.49000
C510        C  0.06590428  0.09189687  0.58265904     0.91700
O511        O  0.13427089  0.12876334  0.53093443    -0.81900
O512        O  0.21905719  0.06342785  0.49042908    -0.75400
Al513      Al  0.11110233  0.08868838  0.51890780     1.90100
O514        O  0.21592849  0.11908565  0.52293797    -0.74500
O515        O  0.24712928  0.03383903  0.54370022    -0.74300
O516        O  0.23941279  0.09054043  0.57587153    -0.80000
O517        O  0.17738622  0.01103442  0.55941618    -0.78200
O518        O  0.15932368  0.06991888  0.54238240    -1.14300
O519        O  0.08269453  0.02900600  0.55366407    -0.73500
C520        C  0.06739336  0.02898501  0.52485895     0.97200
C521        C  0.17940325  0.13798326  0.52791281     0.93600
Al522      Al  0.22482544  0.07598842  0.53391480     1.55600
O523        O  0.06053420  0.09286559  0.55260945    -0.78200
C524        C  0.22355660  0.00953717  0.55170248     0.97700
C525        C  0.19245033  0.07891331  0.97064887     0.92600
O526        O  0.15018771  0.09036421  0.47963320    -0.83500
O527        O  0.92640043  0.05855606  0.76341664    -0.82900
C528        C  0.76183899  0.07630573  0.67814345     0.96400
O529        O  0.79094198  0.05251316  0.67777558    -0.72100
O530        O  0.88351832  0.07170156  0.67480580    -0.75600
Al531      Al  0.85147205  0.04385861  0.70278378     1.49000
C532        C  0.91955700  0.08954048  0.68059001     0.91700
O533        O  0.85966539  0.13345553  0.73398174    -0.81900
O534        O  0.79181250  0.07125875  0.78870551    -0.75400
Al535      Al  0.89018675  0.09505285  0.74811554     1.90100
O536        O  0.78378865  0.12345064  0.75243483    -0.74500
O537        O  0.75203790  0.03875245  0.74101237    -0.74300
O538        O  0.75530561  0.09157415  0.70353512    -0.80000
O539        O  0.82040093  0.01235924  0.72720025    -0.78200
O540        O  0.83950513  0.07284959  0.73226006    -1.14300
O541        O  0.91460602  0.02945285  0.72108163    -0.73500
C542        C  0.93765035  0.03448468  0.74710789     0.97200
C543        C  0.81484296  0.14225768  0.74072899     0.93600
Al544      Al  0.77606651  0.08037005  0.74532062     1.55600
O545        O  0.93021448  0.09623371  0.70925539    -0.78200
C546        C  0.77555254  0.01318615  0.73768391     0.97700
C547        C  0.82232788  0.08775538  0.80437641     0.92600
O548        O  0.86026520  0.09976696  0.79046033    -0.83500
O549        O  0.41881488  0.16033124  0.75681377    -0.82900
C550        C  0.26969897  0.12721374  0.85048887     0.96400
O551        O  0.30033359  0.14944997  0.85228430    -0.72100
O552        O  0.39405060  0.13309644  0.84589059    -0.75600
Al553      Al  0.35410157  0.16316729  0.82472568     1.49000
C554        C  0.43438117  0.12109499  0.83518625     0.91700
O555        O  0.37110202  0.07940817  0.78239377    -0.81900
O556        O  0.28421215  0.14201400  0.73924351    -0.75400
Al557      Al  0.39209822  0.12038767  0.77018791     1.90100
O558        O  0.28960078  0.08635577  0.77237535    -0.74500
O559        O  0.24946774  0.17084178  0.79044981    -0.74300
O560        O  0.25962380  0.11522137  0.82390060    -0.80000
O561        O  0.31504978  0.19636437  0.80827037    -0.78200
O562        O  0.34062561  0.13796054  0.79226930    -1.14300
O563        O  0.41201354  0.18222824  0.80415724    -0.73500
C564        C  0.43088503  0.18191984  0.77614238     0.97200
C565        C  0.32711043  0.06856793  0.77855398     0.93600
Al566      Al  0.27627000  0.12951589  0.78229870     1.55600
O567        O  0.44045210  0.11826056  0.80526749    -0.78200
C568        C  0.27011106  0.19604229  0.79832942     0.97700
C569        C  0.31308044  0.12754194  0.72012090     0.92600
O570        O  0.35577376  0.11716654  0.72963361    -0.83500
O571        O  0.58764420  0.15310886  0.51648872    -0.82900
C572        C  0.74725392  0.13076416  0.92731991     0.96400
O573        O  0.71863046  0.15473488  0.92741558    -0.72100
O574        O  0.62402781  0.13719449  0.92639527    -0.75600
Al575      Al  0.65942608  0.16453434  0.95349721     1.49000
C576        C  0.58481368  0.12249001  0.93405806     0.91700
O577        O  0.64367397  0.07590835  0.98669032    -0.81900
O578        O  0.72132539  0.13470737  0.53873058    -0.75400
Al579      Al  0.61868934  0.11549056  0.00080027     1.90100
O580        O  0.72297622  0.08286592  0.00096657    -0.74500
O581        O  0.76023531  0.16752658  0.99090691    -0.74300
O582        O  0.75346713  0.11503926  0.95249728    -0.80000
O583        O  0.69309155  0.19517818  0.97713271    -0.78200
O584        O  0.67074573  0.13543669  0.98315192    -1.14300
O585        O  0.59756717  0.18064388  0.97263892    -0.73500
C586        C  0.57585245  0.17671568  0.99946666     0.97200
C587        C  0.68790130  0.06535775  0.99192413     0.93600
Al588      Al  0.73421538  0.12601961  0.99482265     1.55600
O589        O  0.57633359  0.11621685  0.96317558    -0.78200
C590        C  0.73761486  0.19350347  0.98781751     0.97700
C591        C  0.68953079  0.11971794  0.55516155     0.92600
O592        O  0.64992735  0.10931866  0.54214682    -0.83500
C593        C  0.46063142  0.10793166  0.89059580    -0.10300
C594        C  0.47502398  0.11309087  0.85855458     0.05900
C595        C  0.52717543  0.11589958  0.85136294    -0.04100
C596        C  0.56261446  0.11670004  0.87630575    -0.08500
C597        C  0.54748933  0.11466678  0.90867142     0.05000
C598        C  0.49588130  0.10869879  0.91551791    -0.03500
Br599      Br  0.46887549  0.10442931  0.95814734    -0.03200
H600        H  0.42090263  0.10511842  0.89661576     0.08900
H601        H  0.60209464  0.12053158  0.87031705     0.06900
Br602      Br  0.55242625  0.12197402  0.80860398    -0.03700
C603        C  0.76378057  0.08866040  0.88787073    -0.10300
C604        C  0.77120410  0.11968937  0.89712481     0.05900
C605        C  0.79915183  0.13926941  0.87678060    -0.04100
C606        C  0.81857691  0.12767513  0.84767045    -0.08500
C607        C  0.80960047  0.09682208  0.83786891     0.05000
C608        C  0.78233759  0.07718203  0.85861431    -0.03500
Br609      Br  0.76887228  0.03454630  0.84828266    -0.03200
H610        H  0.74131752  0.07356756  0.90284179     0.08900
H611        H  0.83868386  0.14337031  0.83191330     0.06900
Br612      Br  0.81148095  0.18191527  0.88761214    -0.03700
C613        C  0.69324298  0.07962830  0.59818795    -0.10300
C614        C  0.70180307  0.11060410  0.58863770     0.05900
C615        C  0.72694613  0.13052735  0.60992455    -0.04100
C616        C  0.74387425  0.11915516  0.63960592    -0.08500
C617        C  0.73780771  0.08774342  0.64825994     0.05000
C618        C  0.71161755  0.06801216  0.62742639    -0.03500
Br619      Br  0.69972705  0.02519647  0.63796508    -0.03200
H620        H  0.67425439  0.06389999  0.58214272     0.08900
H621        H  0.76389105  0.13463931  0.65546313     0.06900
Br622      Br  0.73917798  0.17336283  0.59974063    -0.03700
C623        C  0.29450277  0.10869302  0.63138439    -0.10300
C624        C  0.24971879  0.09099450  0.63269620     0.05900
C625        C  0.22641948  0.08658883  0.66300569    -0.04100
C626        C  0.24653796  0.10062121  0.69023854    -0.08500
C627        C  0.29181133  0.11734074  0.68904463     0.05000
C628        C  0.31618205  0.12112621  0.65929663    -0.03500
Br629      Br  0.37778773  0.14399958  0.65566429    -0.03200
H630        H  0.31326481  0.11252657  0.60861105     0.08900
H631        H  0.22790715  0.09693897  0.71310939     0.06900
Br632      Br  0.16811255  0.06100540  0.67020988    -0.03700
C633        C  0.17913210  0.09498493  0.91350755    -0.10300
C634        C  0.21302694  0.08718463  0.93841814     0.05900
C635        C  0.26549905  0.09258496  0.93346303    -0.04100
C636        C  0.28236176  0.10582185  0.90478769    -0.08500
C637        C  0.24854478  0.11377347  0.88025703     0.05000
C638        C  0.19648397  0.10791554  0.88456158    -0.03500
Br639      Br  0.14733582  0.11960942  0.85278587    -0.03200
H640        H  0.13873815  0.09181481  0.91688768     0.08900
H641        H  0.32252341  0.11009476  0.90164527     0.06900
Br642      Br  0.31683024  0.08540224  0.96526348    -0.03700
C643        C  0.00089448  0.11109728  0.66013664    -0.10300
C644        C  0.95200520  0.10020401  0.65362787     0.05900
C645        C  0.93778803  0.09625349  0.62117351    -0.04100
C646        C  0.97485364  0.09701106  0.59707833    -0.08500
C647        C  0.02548025  0.10300421  0.60459876     0.05000
C648        C  0.03718202  0.11321934  0.63570317    -0.03500
Br649      Br  0.10222320  0.13009728  0.64569866    -0.03200
H650        H  0.01193038  0.11636742  0.68446107     0.08900
H651        H  0.96469848  0.09063967  0.57286998     0.06900
Br652      Br  0.86917000  0.08914993  0.60786329    -0.03700
C653        C  0.70568510  0.47815536  0.99999287    -0.10300
C654        C  0.74427381  0.47275740  0.97705083     0.05900
C655        C  0.76071335  0.99804441  0.95788998    -0.04100
C656        C  0.73949442  0.02752142  0.96257849    -0.08500
C657        C  0.70167296  0.03284013  0.98550346     0.05000
C658        C  0.68438338  0.00800371  0.00429994    -0.03500
Br659      Br  0.63523143  0.51432694  0.03776740    -0.03200
H660        H  0.69278611  0.45930816  0.01510252     0.08900
H661        H  0.75428083  0.04690125  0.94905897     0.06900
Br662      Br  0.81418192  0.99583596  0.92629839    -0.03700
C663        C  0.75915737  0.27524315  0.01618772    -0.10300
C664        C  0.80295004  0.28292714  0.99883921     0.05900
C665        C  0.82925462  0.25960541  0.98149420    -0.04100
C666        C  0.80947412  0.22950580  0.98001987    -0.08500
C667        C  0.76352611  0.22258226  0.99547101     0.05000
C668        C  0.73946031  0.24532605  0.01472940    -0.03500
Br669      Br  0.67905936  0.23673673  0.03894626    -0.03200
H670        H  0.73910860  0.29297224  0.02999552     0.08900
H671        H  0.82809960  0.21213232  0.96504314     0.06900
Br672      Br  0.88846377  0.26871009  0.95649001    -0.03700
C673        C  0.96963552  0.48079996  0.97828628    -0.10300
C674        C  0.96133429  0.45571824  0.49957360     0.05900
C675        C  0.98626914  0.45611922  0.52943165    -0.04100
C676        C  0.02037412  0.47989230  0.53660341    -0.08500
C677        C  0.03051340  0.00433356  0.51492916     0.05000
C678        C  0.00347988  0.50484730  0.98553620    -0.03500
Br679      Br  0.00944417  0.03760203  0.95446315    -0.03200
H680        H  0.95020729  0.48144811  0.95547657     0.08900
H681        H  0.03880608  0.47923267  0.55972970     0.06900
Br682      Br  0.97301495  0.42627653  0.56265465    -0.03700
C683        C  0.28010638  0.48685014  0.76420774    -0.10300
C684        C  0.27911999  0.47512694  0.79557081     0.05900
C685        C  0.30061407  0.49278846  0.82039455    -0.04100
C686        C  0.31989811  0.02240170  0.81385855    -0.08500
C687        C  0.31756733  0.03500780  0.78287796     0.05000
C688        C  0.29854201  0.01667114  0.75782393    -0.03500
Br689      Br  0.29630570  0.03145925  0.71460170    -0.03200
H690        H  0.26408768  0.47344806  0.74486264     0.08900
H691        H  0.33432970  0.03628162  0.83335705     0.06900
Br692      Br  0.30441410  0.47753020  0.86358909    -0.03700
C693        C  0.20562525  0.27007061  0.76875342    -0.10300
C694        C  0.20451306  0.28763939  0.79711486     0.05900
C695        C  0.21810275  0.27321979  0.82620538    -0.04100
C696        C  0.23695413  0.24263042  0.82619598    -0.08500
C697        C  0.24154467  0.22575455  0.79757944     0.05000
C698        C  0.22410360  0.23921826  0.76880845    -0.03500
Br699      Br  0.23015184  0.21771363  0.72871369    -0.03200
H700        H  0.19529980  0.28097681  0.74622392     0.08900
H701        H  0.24944973  0.23221842  0.84854285     0.06900
Br702      Br  0.21128527  0.29432401  0.86652285    -0.03700
C703        C  0.05008745  0.49351918  0.79006539    -0.10300
C704        C  0.05078789  0.46380238  0.77553775     0.05900
C705        C  0.01424148  0.45825921  0.75148413    -0.04100
C706        C  0.97862305  0.48154603  0.74309616    -0.08500
C707        C  0.97736573  0.01106940  0.75785845     0.05000
C708        C  0.01426521  0.01690079  0.78158389    -0.03500
Br709      Br  0.01930920  0.05630557  0.80295574    -0.03200
H710        H  0.07747455  0.49870329  0.80848854     0.08900
H711        H  0.95117355  0.47622085  0.72474991     0.06900
Br712      Br  0.01013624  0.41982558  0.72815739    -0.03700
C713        C  0.06145008  0.36008844  0.89961809    -0.10300
C714        C  0.04673018  0.36172863  0.86736912     0.05900
C715        C  0.99639782  0.35497838  0.85908241    -0.04100
C716        C  0.96040344  0.35056721  0.88332442    -0.08500
C717        C  0.97406660  0.35238168  0.91575922     0.05000
C718        C  0.02557753  0.35498575  0.92380397    -0.03500
Br719      Br  0.04741202  0.35647810  0.96751997    -0.03200
H720        H  0.10041327  0.36465114  0.90612960     0.08900
H721        H  0.92071374  0.34886700  0.87690143     0.06900
Br722      Br  0.97323055  0.35643274  0.81556649    -0.03700
C723        C  0.23221916  0.21795930  0.51372132    -0.10300
C724        C  0.23252034  0.22952805  0.54515510     0.05900
C725        C  0.20998957  0.21202806  0.56993179    -0.04100
C726        C  0.18903637  0.18312469  0.56314993    -0.08500
C727        C  0.19129858  0.17089396  0.53213848     0.05000
C728        C  0.21262142  0.18853709  0.50719634    -0.03500
Br729      Br  0.21712214  0.17284021  0.46425272    -0.03200
H730        H  0.24955304  0.23112086  0.49451259     0.08900
H731        H  0.17337427  0.16937168  0.58251604     0.06900
Br732      Br  0.20718141  0.22610705  0.61352919    -0.03700
C733        C  0.26051035  0.42750984  0.57666258    -0.10300
C734        C  0.29213764  0.41787584  0.55130600     0.05900
C735        C  0.30503396  0.43978602  0.52735125    -0.04100
C736        C  0.28398661  0.47006242  0.52842102    -0.08500
C737        C  0.24989505  0.47887615  0.55285177     0.05000
C738        C  0.23952255  0.45749587  0.57767769    -0.03500
Br739      Br  0.19779617  0.46770381  0.61421225    -0.03200
H740        H  0.25102551  0.41129690  0.59562962     0.08900
H741        H  0.29254177  0.98632399  0.50938577     0.06900
Br742      Br  0.34746727  0.42945380  0.49126780    -0.03700
C743        C  0.46484007  0.21729434  0.54409089    -0.10300
C744        C  0.45965570  0.24553399  0.52702388     0.05900
C745        C  0.49263044  0.25040156  0.50072090    -0.04100
C746        C  0.52986541  0.22785767  0.49271237    -0.06100
C747        C  0.53558943  0.19976178  0.51004593     0.05000
C748        C  0.50182821  0.19462323  0.53596546    -0.03500
Br749      Br  0.50218211  0.15703430  0.56103766    -0.03200
H750        H  0.44006619  0.21277166  0.56429674     0.08900
H751        H  0.55447473  0.23254431  0.97229885     0.06900
Br752      Br  0.48767547  0.28638759  0.47342494    -0.03700
C753        C  0.27632051  0.35744435  0.65840677    -0.10300
C754        C  0.24469690  0.33612656  0.64318296     0.05900
C755        C  0.19437257  0.33299060  0.65421281    -0.04100
C756        C  0.17819952  0.34899482  0.68182750    -0.08500
C757        C  0.21149445  0.36830360  0.69856100     0.05000
C758        C  0.26032273  0.37338841  0.68582580    -0.03500
Br759      Br  0.30718694  0.40144671  0.70521513    -0.03200
H760        H  0.31408703  0.36151992  0.64906116     0.08900
H761        H  0.14074265  0.34458412  0.69148962     0.06900
Br762      Br  0.14782293  0.30523104  0.63434225    -0.03700
C763        C  0.26905917  0.37491407  0.95332541    -0.10300
C764        C  0.29990936  0.34787081  0.95294525     0.05900
C765        C  0.31561608  0.33540465  0.92334090    -0.04100
C766        C  0.29844547  0.34949079  0.89479942    -0.08500
C767        C  0.26534249  0.37572883  0.89547184     0.05000
C768        C  0.25219912  0.38897437  0.92522477    -0.03500
Br769      Br  0.21266250  0.42682056  0.92944136    -0.03200
H770        H  0.25755228  0.38526543  0.97594844     0.08900
H771        H  0.30889195  0.33896949  0.87208954     0.06900
Br772      Br  0.35581137  0.29784492  0.92080763    -0.03700
C773        C  0.83154023  0.19920638  0.73914488    -0.10300
C774        C  0.79742128  0.17460385  0.73568603     0.05900
C775        C  0.74583872  0.18149439  0.72870553    -0.04100
C776        C  0.72964422  0.21215788  0.72580526    -0.08500
C777        C  0.76314508  0.23656530  0.72987121     0.05000
C778        C  0.81456226  0.23022913  0.73656036    -0.03500
Br779      Br  0.86281178  0.26287578  0.74096116    -0.03200
H780        H  0.87110647  0.19433403  0.74445370     0.08900
H781        H  0.69004797  0.21706261  0.72057100     0.06900
Br782      Br  0.69414528  0.15119786  0.72171035    -0.03700
C783        C  0.75276175  0.43081385  0.76432152    -0.10300
C784        C  0.70667521  0.42460591  0.74905125     0.05900
C785        C  0.68024897  0.44882680  0.73329841    -0.04100
C786        C  0.70184066  0.47842285  0.73143981    -0.08500
C787        C  0.74982862  0.48386841  0.74475790     0.05000
C788        C  0.77444842  0.46012750  0.76229986    -0.03500
Br789      Br  0.83793956  0.46645490  0.78361949    -0.03200
H790        H  0.77311538  0.41228780  0.77675150     0.08900
H791        H  0.68265897  0.49662843  0.71787782     0.06900
Br792      Br  0.61802901  0.44162339  0.71105026    -0.03700
C793        C  0.50226244  0.20134804  0.74086311    -0.10300
C794        C  0.46886276  0.20654369  0.76682568     0.05900
C795        C  0.47420400  0.23484148  0.78409078    -0.04100
C796        C  0.51131650  0.25656094  0.77523252    -0.08500
C797        C  0.54482356  0.25145244  0.74931527     0.05000
C798        C  0.53969855  0.22305986  0.73210949    -0.03500
Br799      Br  0.58112781  0.21206640  0.69574137    -0.03200
H800        H  0.49966149  0.17995689  0.72728675     0.08900
H801        H  0.51370853  0.27790277  0.78890513     0.06900
Br802      Br  0.43134076  0.24666071  0.81960920    -0.03700
C803        C  0.68154718  0.36578760  0.85109592    -0.10300
C804        C  0.69946974  0.33780787  0.83738998     0.05900
C805        C  0.73807828  0.32060068  0.85297073    -0.04100
C806        C  0.75987670  0.33219170  0.88092793    -0.08500
C807        C  0.74390253  0.36099218  0.89354621     0.05000
C808        C  0.70371153  0.37755839  0.87890407    -0.03500
Br809      Br  0.68267030  0.41813487  0.89364251    -0.03200
H810        H  0.65333421  0.37985344  0.83863210     0.08900
H811        H  0.79050137  0.31918230  0.89228717     0.06900
Br812      Br  0.76381185  0.28198119  0.83582921    -0.03700
C813        C  0.74479769  0.37442867  0.62851520    -0.10300
C814        C  0.76678896  0.34847973  0.64378629     0.05900
C815        C  0.81407619  0.33678677  0.63273585    -0.04100
C816        C  0.83568289  0.34904009  0.60471325    -0.08500
C817        C  0.81088618  0.37304732  0.58766165     0.05000
C818        C  0.76663114  0.38690982  0.60086240    -0.03500
Br819      Br  0.73365343  0.42226944  0.58122150    -0.03200
H820        H  0.71001226  0.38472241  0.63788074     0.08900
H821        H  0.86947004  0.33794017  0.59476521     0.06900
Br822      Br  0.84761441  0.30192716  0.65286007    -0.03700
C823        C  0.48394878  0.34097201  0.67989279    -0.10300
C824        C  0.53019133  0.35379520  0.67084746     0.05900
C825        C  0.53688446  0.36422176  0.63917690    -0.04100
C826        C  0.49903344  0.35918627  0.61635054    -0.08500
C827        C  0.45527631  0.34263367  0.62455524     0.05000
C828        C  0.44702018  0.33470461  0.65711062    -0.03500
Br829      Br  0.38875064  0.31288858  0.67241166    -0.03200
H830        H  0.47889621  0.33242427  0.70414468     0.08900
H831        H  0.50583775  0.36580182  0.59166803     0.06900
Br832      Br  0.59915860  0.38260808  0.62567871    -0.03700
O833        O  0.64423434  0.82819835  0.29337341    -0.82900
C834        C  0.73928185  0.83388812  0.17087687     0.96400
O835        O  0.76175811  0.82922616  0.19702029    -0.72100
O836        O  0.72662363  0.87343391  0.23408850    -0.75600
Al837      Al  0.73451216  0.83064575  0.23970293     1.49000
C838        C  0.69298647  0.89134988  0.24570061     0.91700
O839        O  0.58278499  0.85775407  0.21660831    -0.81900
O840        O  0.61724499  0.77078872  0.22017417    -0.75400
Al841      Al  0.61842432  0.84098778  0.25261097     1.90100
O842        O  0.59821478  0.82069120  0.18210908    -0.74500
O843        O  0.71358816  0.77250795  0.20194656    -0.74300
O844        O  0.69327955  0.82677786  0.16794089    -0.80000
O845        O  0.74865175  0.78805480  0.24666479    -0.78200
O846        O  0.66940344  0.82374477  0.22975091    -1.14300
O847        O  0.72495653  0.83482694  0.28410031    -0.73500
C848        C  0.68868458  0.83212831  0.30334813     0.97200
C849        C  0.57372565  0.84451495  0.19051789     0.93600
Al850      Al  0.65686873  0.79982133  0.19595162     1.55600
O851        O  0.65077329  0.88123090  0.25587531    -0.78200
C852        C  0.74175253  0.76744508  0.22582726     0.97700
C853        C  0.58207498  0.77622010  0.24033058     0.92600
O854        O  0.57770304  0.80324175  0.25283835    -0.83500
O855        O  0.35601455  0.82623982  0.99296406    -0.82900
C856        C  0.26574735  0.81859851  0.11544711     0.96400
O857        O  0.24067668  0.81597688  0.09003040    -0.72100
O858        O  0.27360575  0.86511967  0.05997768    -0.75600
Al859      Al  0.26634443  0.82335345  0.04757098     1.49000
C860        C  0.30527092  0.88425351  0.04912681     0.91700
O861        O  0.41178469  0.84732622  0.07458881    -0.81900
O862        O  0.38450399  0.76034198  0.05556200    -0.75400
Al863      Al  0.38097083  0.83464768  0.03539265     1.90100
O864        O  0.40509764  0.80376117  0.10110136    -0.74500
O865        O  0.28900838  0.75945395  0.07537629    -0.74300
O866        O  0.31073974  0.80838053  0.11657510    -0.80000
O867        O  0.25298476  0.78213247  0.03398166    -0.78200
O868        O  0.33143627  0.81425264  0.05538843    -1.14300
O869        O  0.27573875  0.83419459  0.00453766    -0.73500
C870        C  0.31149238  0.83394473  0.48466652     0.97200
C871        C  0.42193639  0.83087966  0.09881723     0.93600
Al872      Al  0.34589026  0.78527257  0.08465405     1.55600
O873        O  0.34621589  0.87480089  0.03602668    -0.78200
C874        C  0.25931871  0.75858336  0.05171421     0.97700
C875        C  0.42078207  0.76924265  0.03796859     0.92600
O876        O  0.42525100  0.79799156  0.03121486    -0.83500
O877        O  0.15493671  0.88411301  0.24062778    -0.82900
C878        C  0.24108628  0.88677381  0.36561246     0.96400
O879        O  0.26516775  0.88537139  0.33957298    -0.72100
O880        O  0.22873531  0.83861064  0.30777686    -0.75600
Al881      Al  0.24083179  0.88053600  0.29676425     1.49000
C882        C  0.19612196  0.82120755  0.29537124     0.91700
O883        O  0.09214303  0.85935892  0.31831175    -0.81900
O884        O  0.12286138  0.94617661  0.30584009    -0.75400
Al885      Al  0.12660726  0.87345430  0.28129991     1.90100
O886        O  0.10219088  0.89972320  0.34954120    -0.74500
O887        O  0.21852906  0.94553076  0.32471526    -0.74300
O888        O  0.19600466  0.89683493  0.36605856    -0.80000
O889        O  0.25886551  0.92184239  0.28517939    -0.78200
O890        O  0.17597397  0.89146925  0.30376539    -1.14300
O891        O  0.23352238  0.87189648  0.25262397    -0.73500
C892        C  0.19931616  0.87617919  0.23209141     0.97200
C893        C  0.08215632  0.87389990  0.34371447     0.93600
Al894      Al  0.16125872  0.91968943  0.33387727     1.55600
O895        O  0.15857251  0.83255950  0.28023286    -0.78200
C896        C  0.25099695  0.94573206  0.30226181     0.97700
C897        C  0.08802202  0.93878408  0.28674188     0.92600
O898        O  0.08417427  0.91063869  0.27812629    -0.83500
O899        O  0.86679338  0.87763450  0.04276682    -0.82900
C900        C  0.77127338  0.87380933  0.42085572     0.96400
O901        O  0.74855922  0.87788897  0.44724950    -0.72100
O902        O  0.78088922  0.83437091  0.48655399    -0.75600
Al903      Al  0.77508599  0.87779396  0.49015984     1.49000
C904        C  0.81537974  0.81595178  0.49618205     0.91700
O905        O  0.92532339  0.84871800  0.46415253    -0.81900
O906        O  0.89117882  0.93626660  0.47006124    -0.75400
Al907      Al  0.89121636  0.86537075  0.50114207     1.90100
O908        O  0.91191912  0.88742934  0.43141608    -0.74500
O909        O  0.79593963  0.93498224  0.45047806    -0.74300
O910        O  0.81724178  0.88091836  0.41760744    -0.80000
O911        O  0.76222475  0.92115800  0.49589251    -0.78200
O912        O  0.84011384  0.88347982  0.47926619    -1.14300
O913        O  0.78523108  0.87537820  0.03445315    -0.73500
C914        C  0.82196186  0.87660018  0.05330738     0.97200
C915        C  0.93464409  0.86258351  0.43833503     0.93600
Al916      Al  0.85291801  0.90767975  0.44546069     1.55600
O917        O  0.85863971  0.82556913  0.50443267    -0.78200
C918        C  0.76878449  0.94139941  0.47445560     0.97700
C919        C  0.92601362  0.93027884  0.49009592     0.92600
O920        O  0.93194035  0.90282255  0.50126188    -0.83500
O921        O  0.08314107  0.54964435  0.00538916    -0.82900
C922        C  0.22719091  0.57872208  0.10224858     0.96400
O923        O  0.19525252  0.55716372  0.10303635    -0.72100
O924        O  0.10391498  0.57825631  0.09451145    -0.75600
Al925      Al  0.14125155  0.54589937  0.07472602     1.49000
C926        C  0.06593808  0.59188870  0.08262702     0.91700
O927        O  0.13426344  0.62878609  0.03086812    -0.81900
O928        O  0.21892590  0.56345312  0.99027178    -0.75400
Al929      Al  0.11104862  0.58874681  0.01882654     1.90100
O930        O  0.21590583  0.61909471  0.02281898    -0.74500
O931        O  0.24704383  0.53382214  0.04350803    -0.74300
O932        O  0.23941258  0.59048815  0.07574138    -0.80000
O933        O  0.17728015  0.51100657  0.05919095    -0.78200
O934        O  0.15928385  0.56993284  0.04225398    -1.14300
O935        O  0.08261015  0.52909577  0.05356498    -0.73500
C936        C  0.06722852  0.52911438  0.02478297     0.97200
C937        C  0.17938752  0.63799692  0.02780272     0.93600
Al938      Al  0.22477802  0.57598541  0.03376225     1.55600
O939        O  0.06053526  0.59291110  0.05257818    -0.78200
C940        C  0.22346050  0.50951666  0.05148651     0.97700
C941        C  0.19250745  0.57884129  0.47074975     0.92600
O942        O  0.15010208  0.59044089  0.97952835    -0.83500
O943        O  0.92624758  0.55812975  0.26332242    -0.82900
C944        C  0.76168451  0.57599799  0.17809987     0.96400
O945        O  0.79086314  0.55224637  0.17764007    -0.72100
O946        O  0.88341187  0.57145892  0.17471401    -0.75600
Al947      Al  0.85136013  0.54354210  0.20262876     1.49000
C948        C  0.91948658  0.58925580  0.18054617     0.91700
O949        O  0.85951067  0.63304977  0.23396205    -0.81900
O950        O  0.79172938  0.57081292  0.28868084    -0.75400
Al951      Al  0.89005043  0.59465079  0.24806682     1.90100
O952        O  0.78361367  0.62302748  0.25240077    -0.74500
O953        O  0.75197891  0.53830984  0.24097326    -0.74300
O954        O  0.75508620  0.59115855  0.20354767    -0.80000
O955        O  0.82028489  0.51196662  0.22694259    -0.78200
O956        O  0.83937090  0.57246021  0.23218469    -1.14300
O957        O  0.91448295  0.52910802  0.22090984    -0.73500
C958        C  0.93750991  0.53409567  0.24695184     0.97200
C959        C  0.81467471  0.64183751  0.24070008     0.93600
Al960      Al  0.77593377  0.57993688  0.24529410     1.55600
O961        O  0.93013337  0.59587176  0.20923036    -0.78200
C962        C  0.77548401  0.51275813  0.23751169     0.97700
C963        C  0.82217513  0.58737866  0.30432638     0.92600
O964        O  0.86012071  0.59936777  0.29040428    -0.83500
O965        O  0.41867116  0.65985012  0.25673248    -0.82900
C966        C  0.26955823  0.62689296  0.35045461     0.96400
O967        O  0.30019430  0.64913269  0.35220877    -0.72100
O968        O  0.39389024  0.63272753  0.34583311    -0.75600
Al969      Al  0.35397488  0.66279510  0.32464117     1.49000
C970        C  0.43418493  0.62066474  0.33514548     0.91700
O971        O  0.37081921  0.57897279  0.28240114    -0.81900
O972        O  0.28403288  0.64161505  0.23921110    -0.75400
Al973      Al  0.39189857  0.61993437  0.27015665     1.90100
O974        O  0.28934222  0.58597417  0.27235050    -0.74500
O975        O  0.24931628  0.67046410  0.29043171    -0.74300
O976        O  0.25947291  0.61486037  0.32388662    -0.80000
O977        O  0.31495330  0.69599053  0.30816156    -0.78200
O978        O  0.34045795  0.63755943  0.29222038    -1.14300
O979        O  0.41189335  0.68181780  0.30404341    -0.73500
C980        C  0.43071242  0.68148225  0.27601454     0.97200
C981        C  0.32680491  0.56816294  0.27855988     0.93600
Al982      Al  0.27608586  0.62913513  0.28227219     1.55600
O983        O  0.44025457  0.61780030  0.30523087    -0.78200
C984        C  0.26998039  0.69566490  0.29828424     0.97700
C985        C  0.31292127  0.62714182  0.22009737     0.92600
O986        O  0.35557587  0.61672452  0.22962386    -0.83500
O987        O  0.58787780  0.65333896  0.01652584    -0.82900
C988        C  0.74690930  0.63075373  0.42711636     0.96400
O989        O  0.71822739  0.65470089  0.42723028    -0.72100
O990        O  0.62366750  0.63707694  0.42629979    -0.75600
Al991      Al  0.65906558  0.66444137  0.45338649     1.49000
C992        C  0.58457476  0.62226679  0.43399158     0.91700
O993        O  0.64377729  0.57575876  0.48655345    -0.81900
O994        O  0.72134766  0.63472503  0.03888845    -0.75400
Al995      Al  0.61861310  0.61530171  0.50070411     1.90100
O996        O  0.72304949  0.58286566  0.50078603    -0.74500
O997        O  0.75994343  0.66752790  0.49070229    -0.74300
O998        O  0.75325297  0.61506224  0.45230088    -0.80000
O999        O  0.69270916  0.69512882  0.47701113    -0.78200
O1000       O  0.67054516  0.63534396  0.48302189    -1.14300
O1001       O  0.59722839  0.68047060  0.47259973    -0.73500
C1002       C  0.57555045  0.67650528  0.49943186     0.97200
C1003       C  0.68807850  0.56529642  0.49173004     0.93600
Al1004     Al  0.73407589  0.62601178  0.49463406     1.55600
O1005       O  0.57620091  0.61595260  0.46311102    -0.78200
C1006       C  0.73725835  0.69348311  0.48766071     0.97700
C1007       C  0.68945112  0.61977416  0.05527649     0.92600
O1008       O  0.64983630  0.60944478  0.04222400    -0.83500
C1009       C  0.46037599  0.60765456  0.39059926    -0.10300
C1010       C  0.47479487  0.61263597  0.35853204     0.05900
C1011       C  0.52697149  0.61526960  0.35132182    -0.04100
C1012       C  0.56240904  0.61616490  0.37626437    -0.08500
C1013       C  0.54725591  0.61434709  0.40863842     0.05000
C1014       C  0.49562651  0.60848500  0.41551493    -0.03500
Br1015     Br  0.46860310  0.60448394  0.45816785    -0.03200
H1016       H  0.42063194  0.60494752  0.39663843     0.08900
H1017       H  0.60191682  0.61988277  0.37026329     0.06900
Br1018     Br  0.55228295  0.62091351  0.30851329    -0.03700
C1019       C  0.76374495  0.58851820  0.38785963    -0.10300
C1020       C  0.77079334  0.61964583  0.39690899     0.05900
C1021       C  0.79839465  0.63924612  0.37639268    -0.04100
C1022       C  0.81789425  0.62756201  0.34733883    -0.08500
C1023       C  0.80932145  0.59659539  0.33775679     0.05000
C1024       C  0.78234779  0.57695409  0.35864800    -0.03500
Br1025     Br  0.76940992  0.53419229  0.34858909    -0.03200
H1026       H  0.74157527  0.57339224  0.40297436     0.08900
H1027       H  0.83775555  0.64325715  0.33145517     0.06900
Br1028     Br  0.81020550  0.68202700  0.38691819    -0.03700
C1029       C  0.69341683  0.57949520  0.09806407    -0.10300
C1030       C  0.70164111  0.61056132  0.08872437     0.05900
C1031       C  0.72639592  0.63048806  0.11018077    -0.04100
C1032       C  0.74334267  0.61901821  0.13981994    -0.08500
C1033       C  0.73762719  0.58751962  0.14826353     0.05000
C1034       C  0.71178263  0.56778931  0.12725864    -0.03500
Br1035     Br  0.70038187  0.52484566  0.13747912    -0.03200
H1036       H  0.67471315  0.56377976  0.08188165     0.08900
H1037       H  0.76309901  0.63450420  0.15580633     0.06900
Br1038     Br  0.73799786  0.67345377  0.10027845    -0.03700
C1039       C  0.29456324  0.60843094  0.13132836    -0.10300
C1040       C  0.24974181  0.59077128  0.13257236     0.05900
C1041       C  0.22639233  0.58629563  0.16285713    -0.04100
C1042       C  0.24644810  0.60028275  0.19012710    -0.08500
C1043       C  0.29172594  0.61699416  0.18899455     0.05000
C1044       C  0.31620585  0.62078882  0.15928365    -0.03500
Br1045     Br  0.37795302  0.64353587  0.15576687    -0.03200
H1046       H  0.31338731  0.61228163  0.10857847     0.08900
H1047       H  0.22777143  0.59656616  0.21297738     0.06900
Br1048     Br  0.16812066  0.56065982  0.16998935    -0.03700
C1049       C  0.17917846  0.59447674  0.41348876    -0.10300
C1050       C  0.21306840  0.58706164  0.43851465     0.05900
C1051       C  0.26545008  0.59278951  0.43364521    -0.04100
C1052       C  0.28224085  0.60594845  0.40492205    -0.08500
C1053       C  0.24844017  0.61350418  0.38025773     0.05000
C1054       C  0.19646400  0.60732604  0.38448771    -0.03500
Br1055     Br  0.14728733  0.61846155  0.35252761    -0.03200
H1056       H  0.13883403  0.59105524  0.41681297     0.08900
H1057       H  0.32233487  0.61047551  0.40184963     0.06900
Br1058     Br  0.31668244  0.58620822  0.46563017    -0.03700
C1059       C  0.00088058  0.61082157  0.16017437    -0.10300
C1060       C  0.95198269  0.59996459  0.15361960     0.05900
C1061       C  0.93778545  0.59611784  0.12114816    -0.04100
C1062       C  0.97486779  0.59694666  0.09706204    -0.08500
C1063       C  0.02549793  0.60291263  0.10460960     0.05000
C1064       C  0.03718437  0.61301860  0.13575580    -0.03500
Br1065     Br  0.10222040  0.62986095  0.14583021    -0.03200
H1066       H  0.01190556  0.61601456  0.18451884     0.08900
H1067       H  0.96471799  0.59065913  0.07282923     0.06900
Br1068     Br  0.86916120  0.58908502  0.10780348    -0.03700
C1069       C  0.70576832  0.97807604  0.49963942    -0.10300
C1070       C  0.74486902  0.97275272  0.47702560     0.05900
C1071       C  0.76173361  0.49810474  0.45810789    -0.04100
C1072       C  0.74041849  0.52756872  0.46272121    -0.08500
C1073       C  0.70204588  0.53280560  0.48531101     0.05000
C1074       C  0.68434773  0.50790869  0.50385979    -0.03500
Br1075     Br  0.63468393  0.01417813  0.53703916    -0.03200
H1076       H  0.69248372  0.95916772  0.51452887     0.08900
H1077       H  0.75554274  0.54699544  0.44942407     0.06900
Br1078     Br  0.81610365  0.49600035  0.42712750    -0.03700
C1079       C  0.75900644  0.77515420  0.51620770    -0.10300
C1080       C  0.80277931  0.78283765  0.49883591     0.05900
C1081       C  0.82899180  0.75953303  0.48141485    -0.04100
C1082       C  0.80910790  0.72946947  0.47985645    -0.08500
C1083       C  0.76317170  0.72255543  0.49532115     0.05000
C1084       C  0.73923277  0.74525694  0.51469029    -0.03500
Br1085     Br  0.67898006  0.73661354  0.53902998    -0.03200
H1086       H  0.73904827  0.79286546  0.53008963     0.08900
H1087       H  0.82766572  0.71211394  0.46482490     0.06900
Br1088     Br  0.88825243  0.76861068  0.45644914    -0.03700
C1089       C  0.97046761  0.98037322  0.47806104    -0.10300
C1090       C  0.96092592  0.95598007  0.99972842     0.05900
C1091       C  0.98627357  0.95622878  0.02944629    -0.04100
C1092       C  0.02047964  0.97995359  0.03653612    -0.08500
C1093       C  0.03022888  0.50453492  0.01492161     0.05000
C1094       C  0.00425306  0.00444497  0.48536099    -0.03500
Br1095     Br  0.01086661  0.53694612  0.45401867    -0.03200
H1096       H  0.95139375  0.98088785  0.45512975     0.08900
H1097       H  0.03927512  0.97916417  0.05954243     0.06900
Br1098     Br  0.97348989  0.92624452  0.06261238    -0.03700
C1099       C  0.27966885  0.98647392  0.26425701    -0.10300
C1100       C  0.27859004  0.97477056  0.29562754     0.05900
C1101       C  0.30001553  0.99244716  0.32046430    -0.04100
C1102       C  0.31930876  0.52205071  0.31391288    -0.08500
C1103       C  0.31716853  0.53461615  0.28290981     0.05000
C1104       C  0.29820454  0.51626808  0.25784539    -0.03500
Br1105     Br  0.29611654  0.53103260  0.21460920    -0.03200
H1106       H  0.26368505  0.97306582  0.24490461     0.08900
H1107       H  0.33366074  0.53594800  0.33342234     0.06900
Br1108     Br  0.30362657  0.97723711  0.36368323    -0.03700
C1109       C  0.20531293  0.76966091  0.26880579    -0.10300
C1110       C  0.20430189  0.78723489  0.29716354     0.05900
C1111       C  0.21799827  0.77282209  0.32623922    -0.04100
C1112       C  0.23689315  0.74224213  0.32620377    -0.08500
C1113       C  0.24139790  0.72536899  0.29758008     0.05000
C1114       C  0.22381583  0.73881675  0.26883797    -0.03500
Br1115     Br  0.22968932  0.71729933  0.22874263    -0.03200
H1116       H  0.19488562  0.78055762  0.24629003     0.08900
H1117       H  0.24947647  0.73183368  0.34853300     0.06900
Br1118     Br  0.21124115  0.79391273  0.36656971    -0.03700
C1119       C  0.05024297  0.99318840  0.28963687    -0.10300
C1120       C  0.05044450  0.96332508  0.27543092     0.05900
C1121       C  0.01350849  0.95768253  0.25163691    -0.04100
C1122       C  0.97795108  0.98100232  0.24323878    -0.08500
C1123       C  0.97718743  0.51065639  0.25766566     0.05000
C1124       C  0.01450518  0.51659710  0.28108692    -0.03500
Br1125     Br  0.02036298  0.55624617  0.30186928    -0.03200
H1126       H  0.07798292  0.99847540  0.30781420     0.08900
H1127       H  0.95015720  0.97560315  0.22512441     0.06900
Br1128     Br  0.00872770  0.91906242  0.22870182    -0.03700
C1129       C  0.06121361  0.85929977  0.39947561    -0.10300
C1130       C  0.04641875  0.86109712  0.36725078     0.05900
C1131       C  0.99604832  0.85444642  0.35897181    -0.04100
C1132       C  0.96007623  0.85004920  0.38322475    -0.08500
C1133       C  0.97381482  0.85178462  0.41565162     0.05000
C1134       C  0.02536286  0.85419954  0.42366940    -0.03500
Br1135     Br  0.04730469  0.85546984  0.46737209    -0.03200
H1136       H  0.10021890  0.86375850  0.40596977     0.08900
H1137       H  0.92036126  0.84845843  0.37682589     0.06900
Br1138     Br  0.97282295  0.85604032  0.31547192    -0.03700
C1139       C  0.23218966  0.71794786  0.01351461    -0.10300
C1140       C  0.23238265  0.72956488  0.04492939     0.05900
C1141       C  0.20972152  0.71212989  0.06970247    -0.04100
C1142       C  0.18884193  0.68320340  0.06295669    -0.08500
C1143       C  0.19125970  0.67090871  0.03197843     0.05000
C1144       C  0.21260468  0.68851756  0.00701899    -0.03500
Br1145     Br  0.21707517  0.67277917  0.96408925    -0.03200
H1146       H  0.24958207  0.73107953  0.99430541     0.08900
H1147       H  0.17309847  0.66949081  0.08232686     0.06900
Br1148     Br  0.20660767  0.72634957  0.11324260    -0.03700
C1149       C  0.26062625  0.92755601  0.07663295    -0.10300
C1150       C  0.29209443  0.91787058  0.05121901     0.05900
C1151       C  0.30486703  0.93973367  0.02719112    -0.04100
C1152       C  0.28377811  0.96999755  0.02821817    -0.08500
C1153       C  0.24983054  0.97885813  0.05270616     0.05000
C1154       C  0.23966709  0.95755273  0.07763305    -0.03500
Br1155     Br  0.19834695  0.96792013  0.11430025    -0.03200
H1156       H  0.25127585  0.91138395  0.09566447     0.08900
H1157       H  0.29212892  0.48621691  0.00902584     0.06900
Br1158     Br  0.34724211  0.92936430  0.99109223    -0.03700
C1159       C  0.46492687  0.71738996  0.04397001    -0.10300
C1160       C  0.45970799  0.74561945  0.02689908     0.05900
C1161       C  0.49273992  0.75053288  0.00063251    -0.04100
C1162       C  0.53006110  0.72803050  0.99265914    -0.06100
C1163       C  0.53581006  0.69994314  0.01000062     0.05000
C1164       C  0.50199962  0.69476624  0.03588642    -0.03500
Br1165     Br  0.50238399  0.65718594  0.06097556    -0.03200
H1166       H  0.44011723  0.71284058  0.06415182     0.08900
H1167       H  0.55453404  0.73247451  0.47248712     0.06900
Br1168     Br  0.48775039  0.78652404  0.97334520    -0.03700
C1169       C  0.27617455  0.85720279  0.15840151    -0.10300
C1170       C  0.24454547  0.83594216  0.14309780     0.05900
C1171       C  0.19419463  0.83281040  0.15408517    -0.04100
C1172       C  0.17803217  0.84871332  0.18176328    -0.08500
C1173       C  0.21134206  0.86794773  0.19857616     0.05000
C1174       C  0.26016939  0.87306947  0.18586478    -0.03500
Br1175     Br  0.30698090  0.90111983  0.20531337    -0.03200
H1176       H  0.31394005  0.86130892  0.14907124     0.08900
H1177       H  0.14055169  0.84430224  0.19138811     0.06900
Br1178     Br  0.14754125  0.80524500  0.13402599    -0.03700
C1179       C  0.26907456  0.87491059  0.45342027    -0.10300
C1180       C  0.29990557  0.84785554  0.45308598     0.05900
C1181       C  0.31550853  0.83530302  0.42349899    -0.04100
C1182       C  0.29821048  0.84928645  0.39493605    -0.08500
C1183       C  0.26507664  0.87550907  0.39556356     0.05000
C1184       C  0.25206648  0.88886326  0.42529004    -0.03500
Br1185     Br  0.21250892  0.92670966  0.42941275    -0.03200
H1186       H  0.25766928  0.88533658  0.47602704     0.08900
H1187       H  0.30858755  0.83869567  0.37224808     0.06900
Br1188     Br  0.35576179  0.79776331  0.42102863    -0.03700
C1189       C  0.83128406  0.69878638  0.23933757    -0.10300
C1190       C  0.79725322  0.67417459  0.23564080     0.05900
C1191       C  0.74575283  0.68104738  0.22842393    -0.04100
C1192       C  0.72957015  0.71170570  0.22545425    -0.08500
C1193       C  0.76296799  0.73612628  0.22976754     0.05000
C1194       C  0.81429056  0.72980401  0.23675305    -0.03500
Br1195     Br  0.86240789  0.76246172  0.24161216    -0.03200
H1196       H  0.87077762  0.69392295  0.24486135     0.08900
H1197       H  0.69004016  0.71659654  0.22002929     0.06900
Br1198     Br  0.69413283  0.65074117  0.22128852    -0.03700
C1199       C  0.75271970  0.93038916  0.26421593    -0.10300
C1200       C  0.70661393  0.92416767  0.24897447     0.05900
C1201       C  0.68019669  0.94836731  0.23318130    -0.04100
C1202       C  0.70179863  0.97795908  0.23127534    -0.08500
C1203       C  0.74978601  0.98342076  0.24458839     0.05000
C1204       C  0.77441460  0.95969712  0.26214723    -0.03500
Br1205     Br  0.83791473  0.96604925  0.28344491    -0.03200
H1206       H  0.77307582  0.91187786  0.27666728     0.08900
H1207       H  0.68261376  0.99615179  0.21769701     0.06900
Br1208     Br  0.61796172  0.94113688  0.21095768    -0.03700
C1209       C  0.50224096  0.70085193  0.24081544    -0.10300
C1210       C  0.46859930  0.70613336  0.26663486     0.05900
C1211       C  0.47359741  0.73455810  0.28371734    -0.04100
C1212       C  0.51074817  0.75626973  0.27490354    -0.08500
C1213       C  0.54456066  0.75106120  0.24916016     0.05000
C1214       C  0.53964947  0.72258534  0.23206205    -0.03500
Br1215     Br  0.58131033  0.71150184  0.19582836    -0.03200
H1216       H  0.49984590  0.67938073  0.22735327     0.08900
H1217       H  0.51289203  0.77769699  0.28845509     0.06900
Br1218     Br  0.43008976  0.74658178  0.31885304    -0.03700
C1219       C  0.68174558  0.86573074  0.35089403    -0.10300
C1220       C  0.69928641  0.83756257  0.33740306     0.05900
C1221       C  0.73753504  0.82022779  0.35318535    -0.04100
C1222       C  0.75936399  0.83186062  0.38112590    -0.08500
C1223       C  0.74378067  0.86083128  0.39353089     0.05000
C1224       C  0.70392959  0.87753507  0.37868570    -0.03500
Br1225     Br  0.68337385  0.91829031  0.39315247    -0.03200
H1226       H  0.65381624  0.87988363  0.33828190     0.08900
H1227       H  0.78971828  0.81874036  0.39263752     0.06900
Br1228     Br  0.76270278  0.78134651  0.33635601    -0.03700
C1229       C  0.74447217  0.87413284  0.12855549    -0.10300
C1230       C  0.76669516  0.84827361  0.14385548     0.05900
C1231       C  0.81417117  0.83680668  0.13287658    -0.04100
C1232       C  0.83571484  0.84914915  0.10487056    -0.08500
C1233       C  0.81067923  0.87303168  0.08776917     0.05000
C1234       C  0.76623155  0.88670511  0.10092396    -0.03500
Br1235     Br  0.73287370  0.92192017  0.08125586    -0.03200
H1236       H  0.70956724  0.88429004  0.13788906     0.08900
H1237       H  0.86967315  0.83820552  0.09497584     0.06900
Br1238     Br  0.84812419  0.80214406  0.15308479    -0.03700
C1239       C  0.48383080  0.84075441  0.17983975    -0.10300
C1240       C  0.53012789  0.85351052  0.17080254     0.05900
C1241       C  0.53686453  0.86394005  0.13913570    -0.04100
C1242       C  0.49898917  0.85898714  0.11630949    -0.08500
C1243       C  0.45516549  0.84250169  0.12450338     0.05000
C1244       C  0.44688245  0.83455198  0.15705012    -0.03500
Br1245     Br  0.38856387  0.81276717  0.17231960    -0.03200
H1246       H  0.47874342  0.83219852  0.20408561     0.08900
H1247       H  0.50582345  0.86560324  0.09163015     0.06900
Br1248     Br  0.59921172  0.88221375  0.12562588    -0.03700
O1249       O  0.64440988  0.82860271  0.79340128    -0.82900
C1250       C  0.73940168  0.83422367  0.67089896     0.96400
O1251       O  0.76189131  0.82965884  0.69705400    -0.72100
O1252       O  0.72673881  0.87388660  0.73410062    -0.75600
Al1253     Al  0.73469057  0.83109716  0.73973669     1.49000
C1254       C  0.69310115  0.89178375  0.74574321     0.91700
O1255       O  0.58297348  0.85814069  0.71663623    -0.81900
O1256       O  0.61752959  0.77115454  0.72034764    -0.75400
Al1257     Al  0.61859407  0.84139570  0.75265725     1.90100
O1258       O  0.59834563  0.82099021  0.68222205    -0.74500
O1259       O  0.71381602  0.77290141  0.70205144    -0.74300
O1260       O  0.69340129  0.82709997  0.66798628    -0.80000
O1261       O  0.74892121  0.78851596  0.74672888    -0.78200
O1262       O  0.66958881  0.82415181  0.72980843    -1.14300
O1263       O  0.72512512  0.83527920  0.78411926    -0.73500
C1264       C  0.68886586  0.83251927  0.80336584     0.97200
C1265       C  0.57386372  0.84483217  0.69058970     0.93600
Al1266     Al  0.65705686  0.80017316  0.69605528     1.55600
O1267       O  0.65091242  0.88164292  0.75592835    -0.78200
C1268       C  0.74200411  0.76787709  0.72592536     0.97700
C1269       C  0.58232765  0.77660730  0.74047359     0.92600
O1270       O  0.57787981  0.80365373  0.75290954    -0.83500
O1271       O  0.35603097  0.82622958  0.49308998    -0.82900
C1272       C  0.26590313  0.81869300  0.61561155     0.96400
O1273       O  0.24080443  0.81600628  0.59021272    -0.72100
O1274       O  0.27369435  0.86512389  0.56010718    -0.75600
Al1275     Al  0.26643015  0.82335716  0.54773560     1.49000
C1276       C  0.30535188  0.88426108  0.54925372     0.91700
O1277       O  0.41192381  0.84734296  0.57467414    -0.81900
O1278       O  0.38456370  0.76034156  0.55577008    -0.75400
Al1279     Al  0.38104450  0.83464092  0.53550662     1.90100
O1280       O  0.40524321  0.80381413  0.60124213    -0.74500
O1281       O  0.28908596  0.75949224  0.57561767    -0.74300
O1282       O  0.31089923  0.80848394  0.61674153    -0.80000
O1283       O  0.25308363  0.78211667  0.53418503    -0.78200
O1284       O  0.33152829  0.81426744  0.55554007    -1.14300
O1285       O  0.27576797  0.83419198  0.50468629    -0.73500
C1286       C  0.31148000  0.83394955  0.98452959     0.97200
C1287       C  0.42208506  0.83092943  0.59892256     0.93600
Al1288     Al  0.34599953  0.78531983  0.58484075     1.55600
O1289       O  0.34629895  0.87480972  0.53614861    -0.78200
C1290       C  0.25941834  0.75858331  0.55194441     0.97700
C1291       C  0.42080324  0.76920290  0.53812407     0.92600
O1292       O  0.42528423  0.79794637  0.53132686    -0.83500
O1293       O  0.15515397  0.88453163  0.74065378    -0.82900
C1294       C  0.24145197  0.88712621  0.86556315     0.96400
O1295       O  0.26555001  0.88574148  0.83952902    -0.72100
O1296       O  0.22903269  0.83901299  0.80773959    -0.75600
Al1297     Al  0.24116482  0.88093418  0.79673162     1.49000
C1298       C  0.19637743  0.82162535  0.79535789     0.91700
O1299       O  0.09249065  0.85985716  0.81843888    -0.81900
O1300       O  0.12333843  0.94667913  0.80584382    -0.75400
Al1301     Al  0.12688809  0.87391291  0.78136743     1.90100
O1302       O  0.10258663  0.90028071  0.84957592    -0.74500
O1303       O  0.21905168  0.94593722  0.82470097    -0.74300
O1304       O  0.19640920  0.89725262  0.86601982    -0.80000
O1305       O  0.25926741  0.92222368  0.78513761    -0.78200
O1306       O  0.17633057  0.89191281  0.80377014    -1.14300
O1307       O  0.23376097  0.87231282  0.75260777    -0.73500
C1308       C  0.19952390  0.87658541  0.73209587     0.97200
C1309       C  0.08251788  0.87445512  0.84381364     0.93600
Al1310     Al  0.16171058  0.92015892  0.83387468     1.55600
O1311       O  0.15878867  0.83299588  0.78027329    -0.78200
C1312       C  0.25148542  0.94611430  0.80222938     0.97700
C1313       C  0.08840379  0.93927712  0.78681523     0.92600
O1314       O  0.08449627  0.91112386  0.77823113    -0.83500
O1315       O  0.86691313  0.87755960  0.54266763    -0.82900
C1316       C  0.77135471  0.87396041  0.92092466     0.96400
O1317       O  0.74857985  0.87799251  0.94730500    -0.72100
O1318       O  0.78095893  0.83444637  0.98655568    -0.75600
Al1319     Al  0.77502744  0.87786120  0.99022231     1.49000
C1320       C  0.81549149  0.81604681  0.99616651     0.91700
O1321       O  0.92539784  0.84900981  0.96418893    -0.81900
O1322       O  0.89080192  0.93651406  0.97027776    -0.75400
Al1323     Al  0.89117770  0.86554801  0.00120998     1.90100
O1324       O  0.91195804  0.88781603  0.93157802    -0.74500
O1325       O  0.79565094  0.93506941  0.95058666    -0.74300
O1326       O  0.81731879  0.88109433  0.91771043    -0.80000
O1327       O  0.76202731  0.92121388  0.99600799    -0.78200
O1328       O  0.84003871  0.88362998  0.97935992    -1.14300
O1329       O  0.78533193  0.87536288  0.53439570    -0.73500
C1330       C  0.82209414  0.87658261  0.55322740     0.97200
C1331       C  0.93478098  0.86299008  0.93844242     0.93600
Al1332     Al  0.85278548  0.90789759  0.94560260     1.55600
O1333       O  0.85872976  0.82569641  0.00442533    -0.78200
C1334       C  0.76846226  0.94145540  0.97455337     0.97700
C1335       C  0.92570016  0.93052369  0.99026521     0.92600
O1336       O  0.93174349  0.90305478  0.00137840    -0.83500
O1337       O  0.08331023  0.54954732  0.50548870    -0.82900
C1338       C  0.22718758  0.57886012  0.60240263     0.96400
O1339       O  0.19524438  0.55729804  0.60322882    -0.72100
O1340       O  0.10387781  0.57826142  0.59458925    -0.75600
Al1341     Al  0.14131327  0.54591762  0.57487319     1.49000
C1342       C  0.06594172  0.59189460  0.58266196     0.91700
O1343       O  0.13429640  0.62876763  0.53093218    -0.81900
O1344       O  0.21909436  0.56343905  0.49042584    -0.75400
Al1345     Al  0.11113458  0.58869022  0.51890749     1.90100
O1346       O  0.21595544  0.61909573  0.52293607    -0.74500
O1347       O  0.24717041  0.53384949  0.54369441    -0.74300
O1348       O  0.23944241  0.59055172  0.57587016    -0.80000
O1349       O  0.17743083  0.51104066  0.55941125    -0.78200
O1350       O  0.15935989  0.56992403  0.54238060    -1.14300
O1351       O  0.08273716  0.52900415  0.55366425    -0.73500
C1352       C  0.06743989  0.52898116  0.52485843     0.97200
C1353       C  0.17942669  0.63799110  0.52790945     0.93600
Al1354     Al  0.22485988  0.57599880  0.53391221     1.55600
O1355       O  0.06056898  0.59286473  0.55261230    -0.78200
C1356       C  0.22359884  0.50954578  0.55169228     0.97700
C1357       C  0.19237058  0.57889851  0.97061531     0.92600
O1358       O  0.15021686  0.59036762  0.47963043    -0.83500
O1359       O  0.92640240  0.55854107  0.76341202    -0.82900
C1360       C  0.76185227  0.57630314  0.67812613     0.96400
O1361       O  0.79095427  0.55250982  0.67776069    -0.72100
O1362       O  0.88353766  0.57169395  0.67479860    -0.75600
Al1363     Al  0.85148099  0.54385167  0.70277341     1.49000
C1364       C  0.91957975  0.58952929  0.68058756     0.91700
O1365       O  0.85969139  0.63344520  0.73397886    -0.81900
O1366       O  0.79181244  0.57125349  0.78869048    -0.75400
Al1367     Al  0.89019954  0.59503995  0.74811161     1.90100
O1368       O  0.78380845  0.62344332  0.75242281    -0.74500
O1369       O  0.75204022  0.53875134  0.74099738    -0.74300
O1370       O  0.75532178  0.59157370  0.70351720    -0.80000
O1371       O  0.82040036  0.51235432  0.72718885    -0.78200
O1372       O  0.83951553  0.57284206  0.73225004    -1.14300
O1373       O  0.91461139  0.52944261  0.72107385    -0.73500
C1374       C  0.93765619  0.53447273  0.74710039     0.97200
C1375       C  0.81486980  0.64224933  0.74072406     0.93600
Al1376     Al  0.77607638  0.58036662  0.74530564     1.55600
O1377       O  0.93023306  0.59621960  0.70925435    -0.78200
C1378       C  0.77555348  0.51318373  0.73767598     0.97700
C1379       C  0.82232835  0.58774404  0.80436751     0.92600
O1380       O  0.86027216  0.59975336  0.79045614    -0.83500
O1381       O  0.41882654  0.66033464  0.75682633    -0.82900
C1382       C  0.26970757  0.62720664  0.85049294     0.96400
O1383       O  0.30035846  0.64943171  0.85230338    -0.72100
O1384       O  0.39406256  0.63308146  0.84589437    -0.75600
Al1385     Al  0.35411508  0.66315871  0.82474237     1.49000
C1386       C  0.43438734  0.62107826  0.83518535     0.91700
O1387       O  0.37109856  0.57940827  0.78238904    -0.81900
O1388       O  0.28421790  0.64202446  0.73924947    -0.75400
Al1389     Al  0.39210104  0.62038944  0.77019116     1.90100
O1390       O  0.28959552  0.58636091  0.77237929    -0.74500
O1391       O  0.24948426  0.67085226  0.79045594    -0.74300
O1392       O  0.25961670  0.61523070  0.82390000    -0.80000
O1393       O  0.31506035  0.69636312  0.80830356    -0.78200
O1394       O  0.34063148  0.63796162  0.79227765    -1.14300
O1395       O  0.41202406  0.68222423  0.80417360    -0.73500
C1396       C  0.43090065  0.68191869  0.77615984     0.97200
C1397       C  0.32710441  0.56857018  0.77855347     0.93600
Al1398     Al  0.27627367  0.62952430  0.78230332     1.55600
O1399       O  0.44045575  0.61825107  0.80526641    -0.78200
C1400       C  0.27012805  0.69604806  0.79835067     0.97700
C1401       C  0.31308541  0.62755439  0.72012571     0.92600
O1402       O  0.35577757  0.61717724  0.72963714    -0.83500
O1403       O  0.58761454  0.65309905  0.51646908    -0.82900
C1404       C  0.74724948  0.63074788  0.92731406     0.96400
O1405       O  0.71862864  0.65471936  0.92740618    -0.72100
O1406       O  0.62402499  0.63717959  0.92638655    -0.75600
Al1407     Al  0.65942172  0.66452362  0.95348400     1.49000
C1408       C  0.58480356  0.62248321  0.93405142     0.91700
O1409       O  0.64361992  0.57590899  0.98668584    -0.81900
O1410       O  0.72130354  0.63470368  0.53870972    -0.75400
Al1411     Al  0.61866159  0.61549375  0.00079334     1.90100
O1412       O  0.72293286  0.58284663  0.00095289    -0.74500
O1413       O  0.76022179  0.66751333  0.99090915    -0.74300
O1414       O  0.75345469  0.61502379  0.95249255    -0.80000
O1415       O  0.69308963  0.69516770  0.97711564    -0.78200
O1416       O  0.67072957  0.63542886  0.98314369    -1.14300
O1417       O  0.59756026  0.68064101  0.97262023    -0.73500
C1418       C  0.57584720  0.67671787  0.99944965     0.97200
C1419       C  0.68784075  0.56534748  0.99191483     0.93600
Al1420     Al  0.73419345  0.62600358  0.99481749     1.55600
O1421       O  0.57630955  0.61622567  0.96317033    -0.78200
C1422       C  0.73760668  0.69349215  0.98781088     0.97700
C1423       C  0.68951450  0.61971012  0.55514148     0.92600
O1424       O  0.64990976  0.60931076  0.54212742    -0.83500
C1425       C  0.46063540  0.60790020  0.89058910    -0.10300
C1426       C  0.47502835  0.61306597  0.85854942     0.05900
C1427       C  0.52717807  0.61587962  0.85135770    -0.04100
C1428       C  0.56261451  0.61668463  0.87630065    -0.08500
C1429       C  0.54748657  0.61465114  0.90866557     0.05000
C1430       C  0.49588217  0.60867167  0.91551163    -0.03500
Br1431     Br  0.46887384  0.60438997  0.95813967    -0.03200
H1432       H  0.42090786  0.60508098  0.89660784     0.08900
H1433       H  0.60209339  0.62052155  0.87031260     0.06900
Br1434     Br  0.55242807  0.62195651  0.80859898    -0.03700
C1435       C  0.76370456  0.58865585  0.88784228    -0.10300
C1436       C  0.77120080  0.61966996  0.89712050     0.05900
C1437       C  0.79921867  0.63923498  0.87680030    -0.04100
C1438       C  0.81864423  0.62764036  0.84768980    -0.08500
C1439       C  0.80959760  0.59680287  0.83786324     0.05000
C1440       C  0.78226118  0.57717757  0.85858575    -0.03500
Br1441     Br  0.76867981  0.53456415  0.84822099    -0.03200
H1442       H  0.74118197  0.57357765  0.90279291     0.08900
H1443       H  0.83880615  0.64332612  0.83195122     0.06900
Br1444     Br  0.81163428  0.68186232  0.88766436    -0.03700
C1445       C  0.69324901  0.57961679  0.59816825    -0.10300
C1446       C  0.70179480  0.61059450  0.58861779     0.05900
C1447       C  0.72693076  0.63052061  0.60990558    -0.04100
C1448       C  0.74386839  0.61915022  0.63958603    -0.08500
C1449       C  0.73781582  0.58773756  0.64824081     0.05000
C1450       C  0.71162918  0.56800332  0.62740758    -0.03500
Br1451     Br  0.69974366  0.52518816  0.63795101    -0.03200
H1452       H  0.67426459  0.56388578  0.58212344     0.08900
H1453       H  0.76387902  0.63463772  0.65544290     0.06900
Br1454     Br  0.73913523  0.67335963  0.59972601    -0.03700
C1455       C  0.29448720  0.60874227  0.63138420    -0.10300
C1456       C  0.24974039  0.59100847  0.63269653     0.05900
C1457       C  0.22646479  0.58657281  0.66300897    -0.04100
C1458       C  0.24657634  0.60060250  0.69024545    -0.08500
C1459       C  0.29181645  0.61735449  0.68904982     0.05000
C1460       C  0.31615643  0.62117873  0.65929797    -0.03500
Br1461     Br  0.37769949  0.64411399  0.65566404    -0.03200
H1462       H  0.31322670  0.61260372  0.60860871     0.08900
H1463       H  0.22796642  0.59689616  0.71311877     0.06900
Br1464     Br  0.16819659  0.56095588  0.67021226    -0.03700
C1465       C  0.17902205  0.59522482  0.91355569    -0.10300
C1466       C  0.21293418  0.58714569  0.93837097     0.05900
C1467       C  0.26547399  0.59225283  0.93332045    -0.04100
C1468       C  0.28237930  0.60550780  0.90466196    -0.08500
C1469       C  0.24853758  0.61375513  0.88024416     0.05000
C1470       C  0.19641315  0.60817276  0.88463034    -0.03500
Br1471     Br  0.14728108  0.62027520  0.85299923    -0.03200
H1472       H  0.13859206  0.59227195  0.91700100     0.08900
H1473       H  0.32259205  0.60956137  0.90144245     0.06900
Br1474     Br  0.31689980  0.58460271  0.96495761    -0.03700
C1475       C  0.00092960  0.61107651  0.66014466    -0.10300
C1476       C  0.95203655  0.60019303  0.65362981     0.05900
C1477       C  0.93782188  0.59625379  0.62117368    -0.04100
C1478       C  0.97489037  0.59701479  0.59708024    -0.08500
C1479       C  0.02551883  0.60299871  0.60460477     0.05000
C1480       C  0.03722135  0.61320070  0.63571409    -0.03500
Br1481     Br  0.10227062  0.63006034  0.64572303    -0.03200
H1482       H  0.01196492  0.61633685  0.68447151     0.08900
H1483       H  0.96473505  0.59065301  0.57286921     0.06900
Br1484     Br  0.86920255  0.58916214  0.60785906    -0.03700
C1485       C  0.70577065  0.97816719  0.00000656    -0.10300
C1486       C  0.74441126  0.97277776  0.97709747     0.05900
C1487       C  0.76051954  0.49801590  0.95781103    -0.04100
C1488       C  0.73933111  0.52749775  0.96251915    -0.08500
C1489       C  0.70157967  0.53282699  0.98548583     0.05000
C1490       C  0.68431533  0.50799488  0.00429801    -0.03500
Br1491     Br  0.63524716  0.01432754  0.03774063    -0.03200
H1492       H  0.69284043  0.95931470  0.01509831     0.08900
H1493       H  0.75408553  0.54687262  0.94897810     0.06900
Br1494     Br  0.81386077  0.49579050  0.92613505    -0.03700
C1495       C  0.75911610  0.77524426  0.01616214    -0.10300
C1496       C  0.80293492  0.78292245  0.99883712     0.05900
C1497       C  0.82926079  0.75959369  0.98151336    -0.04100
C1498       C  0.80948087  0.72949310  0.98003826    -0.08500
C1499       C  0.76351269  0.72257389  0.99546796     0.05000
C1500       C  0.73942050  0.74532640  0.01470370    -0.03500
Br1501     Br  0.67898667  0.73674771  0.03889214    -0.03200
H1502       H  0.73905013  0.79297737  0.02995482     0.08900
H1503       H  0.82812620  0.71211456  0.96507729     0.06900
Br1504     Br  0.88850440  0.76868810  0.95653767    -0.03700
C1505       C  0.96973721  0.98075953  0.97829963    -0.10300
C1506       C  0.96126496  0.95573212  0.49958603     0.05900
C1507       C  0.98619246  0.95613870  0.52944606    -0.04100
C1508       C  0.02030399  0.97990864  0.53661337    -0.08500
C1509       C  0.03057197  0.50432405  0.51492476     0.05000
C1510       C  0.00357399  0.00481028  0.98554897    -0.03500
Br1511     Br  0.00936487  0.53763561  0.95444804    -0.03200
H1512       H  0.95030428  0.98140808  0.95549152     0.08900
H1513       H  0.03873233  0.97925164  0.55974085     0.06900
Br1514     Br  0.97291871  0.92630864  0.56267788    -0.03700
C1515       C  0.28007767  0.98685867  0.76421328    -0.10300
C1516       C  0.27911246  0.97513319  0.79557537     0.05900
C1517       C  0.30063280  0.99278764  0.82039446    -0.04100
C1518       C  0.31987005  0.52240598  0.81386154    -0.08500
C1519       C  0.31755971  0.53500896  0.78287885     0.05000
C1520       C  0.29856454  0.51666525  0.75782083    -0.03500
Br1521     Br  0.29636685  0.53144541  0.71459532    -0.03200
H1522       H  0.26403694  0.97346112  0.74487227     0.08900
H1523       H  0.33428174  0.53628997  0.83336305     0.06900
Br1524     Br  0.30445123  0.97752432  0.86358640    -0.03700
C1525       C  0.20569374  0.77009073  0.76876904    -0.10300
C1526       C  0.20453741  0.78764916  0.79713691     0.05900
C1527       C  0.21809643  0.77322147  0.82622913    -0.04100
C1528       C  0.23694244  0.74263019  0.82621878    -0.08500
C1529       C  0.24156982  0.72576350  0.79759820     0.05000
C1530       C  0.22417713  0.73923968  0.76882182    -0.03500
Br1531     Br  0.23030675  0.71775570  0.72871938    -0.03200
H1532       H  0.19540089  0.78100503  0.74623772     0.08900
H1533       H  0.24940881  0.73221043  0.84856829     0.06900
Br1534     Br  0.21125642  0.79432028  0.86654897    -0.03700
C1535       C  0.05011731  0.99353937  0.79004443    -0.10300
C1536       C  0.05076099  0.96380348  0.77555690     0.05900
C1537       C  0.01415425  0.95824286  0.75154342    -0.04100
C1538       C  0.97854387  0.98153363  0.74315109    -0.08500
C1539       C  0.97738127  0.51106165  0.75784603     0.05000
C1540       C  0.01422888  0.51687759  0.78160873    -0.03500
Br1541     Br  0.01918778  0.55625385  0.80304622    -0.03200
H1542       H  0.07754875  0.99873831  0.80843645     0.08900
H1543       H  0.95104785  0.97619581  0.72483669     0.06900
Br1544     Br  0.00994055  0.91977643  0.72828378    -0.03700
C1545       C  0.06147999  0.86007102  0.89963502    -0.10300
C1546       C  0.04675217  0.86172436  0.86738832     0.05900
C1547       C  0.99642053  0.85497435  0.85910123    -0.04100
C1548       C  0.96043397  0.85054396  0.88334264    -0.08500
C1549       C  0.97410184  0.85234845  0.91577683     0.05000
C1550       C  0.02561283  0.85495554  0.92382066    -0.03500
Br1551     Br  0.04745108  0.85644055  0.96753649    -0.03200
H1552       H  0.10044318  0.86463488  0.90614568     0.08900
H1553       H  0.92074342  0.84884438  0.87692135     0.06900
Br1554     Br  0.97323894  0.85646425  0.81558934    -0.03700
C1555       C  0.23226002  0.71796546  0.51372872    -0.10300
C1556       C  0.23252531  0.72953855  0.54516093     0.05900
C1557       C  0.20996577  0.71204282  0.56992989    -0.04100
C1558       C  0.18901596  0.68313975  0.56314258    -0.08500
C1559       C  0.19131563  0.67090328  0.53213428     0.05000
C1560       C  0.21267047  0.68854196  0.50719935    -0.03500
Br1561     Br  0.21723054  0.67283673  0.46426102    -0.03200
H1562       H  0.24961903  0.73112342  0.49452650     0.08900
H1563       H  0.17333141  0.66939014  0.58250389     0.06900
Br1564     Br  0.20712289  0.72612532  0.61352526    -0.03700
C1565       C  0.26047700  0.92750762  0.57669878    -0.10300
C1566       C  0.29214724  0.91787811  0.55136126     0.05900
C1567       C  0.30506139  0.93978905  0.52741107    -0.04100
C1568       C  0.28399276  0.97006063  0.52846618    -0.08500
C1569       C  0.24985762  0.97886861  0.55287537     0.05000
C1570       C  0.23946295  0.95748760  0.57769724    -0.03500
Br1571     Br  0.19766849  0.96768398  0.61420463    -0.03200
H1572       H  0.25097495  0.91129448  0.59566207     0.08900
H1573       H  0.29251637  0.48632530  0.50933659     0.06900
Br1574     Br  0.34754703  0.92946322  0.49134969    -0.03700
C1575       C  0.46477447  0.71726581  0.54405328    -0.10300
C1576       C  0.45964843  0.74553139  0.52702482     0.05900
C1577       C  0.49266930  0.75042037  0.50074872    -0.04100
C1578       C  0.52989344  0.72787233  0.49273220    -0.06100
C1579       C  0.53556080  0.69975223  0.51003040     0.05000
C1580       C  0.50175058  0.69459099  0.53591844    -0.03500
Br1581     Br  0.50201443  0.65696236  0.56092645    -0.03200
H1582       H  0.43996249  0.71272402  0.56423563     0.08900
H1583       H  0.55470425  0.73263709  0.97241622     0.06900
Br1584     Br  0.48780142  0.78644495  0.47350085    -0.03700
C1585       C  0.27636126  0.85741339  0.65845598    -0.10300
C1586       C  0.24472869  0.83610568  0.64322468     0.05900
C1587       C  0.19439315  0.83298724  0.65424122    -0.04100
C1588       C  0.17821562  0.84899743  0.68185117    -0.08500
C1589       C  0.21151402  0.86829972  0.69858937     0.05000
C1590       C  0.26035366  0.87336994  0.68586501    -0.03500
Br1591     Br  0.30721497  0.90143110  0.70525284    -0.03200
H1592       H  0.31413834  0.86147596  0.64912078     0.08900
H1593       H  0.14074921  0.84459858  0.69150462     0.06900
Br1594     Br  0.14782716  0.80524739  0.63435652    -0.03700
C1595       C  0.26905663  0.87493865  0.95335109    -0.10300
C1596       C  0.29992742  0.84790382  0.95296964     0.05900
C1597       C  0.31566106  0.83545116  0.92336474    -0.04100
C1598       C  0.29847913  0.84953311  0.89482390    -0.08500
C1599       C  0.26535160  0.87575970  0.89549700     0.05000
C1600       C  0.25219324  0.88899852  0.92525082    -0.03500
Br1601     Br  0.21263056  0.92683446  0.92946991    -0.03200
H1602       H  0.25753725  0.88528407  0.97597458     0.08900
H1603       H  0.30894148  0.83901841  0.87211358     0.06900
Br1604     Br  0.35592558  0.79791879  0.92082858    -0.03700
C1605       C  0.83158533  0.69919480  0.73914347    -0.10300
C1606       C  0.79745624  0.67459691  0.73568998     0.05900
C1607       C  0.74586946  0.68149308  0.72872734    -0.04100
C1608       C  0.72967842  0.71215803  0.72584604    -0.08500
C1609       C  0.76319003  0.73656058  0.72990606     0.05000
C1610       C  0.81461288  0.73021920  0.73657167    -0.03500
Br1611     Br  0.86287544  0.76286087  0.74095326    -0.03200
H1612       H  0.87115552  0.69431751  0.74443657     0.08900
H1613       H  0.69007839  0.71706761  0.72062566     0.06900
Br1614     Br  0.69416659  0.65120318  0.72172631    -0.03700
C1615       C  0.75273133  0.93083346  0.76437316    -0.10300
C1616       C  0.70669490  0.92460280  0.74905397     0.05900
C1617       C  0.68031536  0.94880003  0.73323331    -0.04100
C1618       C  0.70189371  0.97839937  0.73137467    -0.08500
C1619       C  0.74982901  0.98386940  0.74475466     0.05000
C1620       C  0.77440979  0.96014963  0.76234694    -0.03500
Br1621     Br  0.83783954  0.96651142  0.78372617    -0.03200
H1622       H  0.77305505  0.91232281  0.77684596     0.08900
H1623       H  0.68274961  0.99658721  0.71776726     0.06900
Br1624     Br  0.61819154  0.94155439  0.71089412    -0.03700
C1625       C  0.50227517  0.70135131  0.74087859    -0.10300
C1626       C  0.46888950  0.70654001  0.76685006     0.05900
C1627       C  0.47425625  0.73482771  0.78412970    -0.04100
C1628       C  0.51137699  0.75654414  0.77527588    -0.08500
C1629       C  0.54486886  0.75144243  0.74934944     0.05000
C1630       C  0.53971954  0.72306002  0.73212965    -0.03500
Br1631     Br  0.58112370  0.71207960  0.69574625    -0.03200
H1632       H  0.49965574  0.67996831  0.72729053     0.08900
H1633       H  0.51378800  0.77787832  0.78895941     0.06900
Br1634     Br  0.43142022  0.74663737  0.81966437    -0.03700
C1635       C  0.68161453  0.86581946  0.85111002    -0.10300
C1636       C  0.69950234  0.83782210  0.83742455     0.05900
C1637       C  0.73807274  0.82060015  0.85302464    -0.04100
C1638       C  0.75987064  0.83219281  0.88098118    -0.08500
C1639       C  0.74393345  0.86100924  0.89357895     0.05000
C1640       C  0.70377781  0.87759128  0.87891780    -0.03500
Br1641     Br  0.68278540  0.91818518  0.89363167    -0.03200
H1642       H  0.65343103  0.87989491  0.83863119     0.08900
H1643       H  0.79046815  0.81917174  0.89235545     0.06900
Br1644     Br  0.76375443  0.78195670  0.83591116    -0.03700
C1645       C  0.74476761  0.87441375  0.62854003    -0.10300
C1646       C  0.76682282  0.84849609  0.64383035     0.05900
C1647       C  0.81415486  0.83685314  0.63280015    -0.04100
C1648       C  0.83573375  0.84911010  0.60477032    -0.08500
C1649       C  0.81086866  0.87307458  0.58769468     0.05000
C1650       C  0.76657608  0.88690233  0.60088369    -0.03500
Br1651     Br  0.73351387  0.92222379  0.58122584    -0.03200
H1652       H  0.70995212  0.88467731  0.63789429     0.08900
H1653       H  0.86955920  0.83804227  0.59483709     0.06900
Br1654     Br  0.84780799  0.80205625  0.65296257    -0.03700
C1655       C  0.48399411  0.84090802  0.67993097    -0.10300
C1656       C  0.53021664  0.85376097  0.67089023     0.05900
C1657       C  0.53688897  0.86421113  0.63922657    -0.04100
C1658       C  0.49903913  0.85917257  0.61640067    -0.08500
C1659       C  0.45530325  0.84259613  0.62459870     0.05000
C1660       C  0.44706524  0.83464126  0.65714900    -0.03500
Br1661     Br  0.38881611  0.81279881  0.67244184    -0.03200
H1662       H  0.47895833  0.83234231  0.70417759     0.08900
H1663       H  0.50582770  0.86580891  0.59172235     0.06900
Br1664     Br  0.59913165  0.88263996  0.62573568    -0.03700
loop_ 
_geom_bond_atom_site_label_1 
_geom_bond_atom_site_label_2 
_geom_bond_distance 
_geom_bond_site_symmetry_2 
_ccdc_geom_bond_type 
O1           C16   1.259       .  A
O1           Al9   1.912       .  S
C2           O12   1.261       .  A
C2            O3   1.258       .  A
C2          C398   1.477       .  S
O3           Al5   1.919       .  S
O4            C6   1.259       .  A
O4           Al5   1.859       .  S
Al5          O13   1.882       .  S
Al5          O15   1.878       .  S
Al5          O14   1.796       .  S
C6           O19   1.271       .  A
C6          C368   1.466       .  S
O7           C17   1.255       .  A
O7           Al9   1.909       .  S
O8           C21   1.267       .  A
O8          Al18   1.922       .  S
Al9          O22   1.958       .  S
Al9          O19   1.944       .  S
Al9          O14   1.794       .  S
O10          C17   1.250       .  A
O10         Al18   1.866       .  S
O11          C20   1.262       .  A
O11         Al18   1.900       .  S
O12         Al18   1.910       .  S
O13          C20   1.258       .  A
O14         Al18   1.782       .  S
O15          C16   1.252       .  A
C16         C388   1.470       .  S
C17         C408   1.462       .  S
C20         C361   1.456       .  S
C21          O22   1.276       .  A
C21         C381   1.520       .  S
O23         C454   1.265       .  A
O23         Al31   1.929   1_556  S
C24          O34   1.258       .  A
C24          O25   1.259       .  A
C24         C338   1.477       .  S
O25         Al27   1.922       .  S
O26          C28   1.262       .  A
O26         Al27   1.880       .  S
Al27         O35   1.898       .  S
Al27         O37   1.871       .  S
Al27         O36   1.783       .  S
C28          O41   1.268       .  A
C28         C318   1.481       .  S
O29          C39   1.260       .  A
O29         Al31   1.914       .  S
O30          C43   1.266       .  A
O30         Al40   1.900       .  S
Al31         O44   1.950       .  S
Al31         O41   1.938       .  S
Al31         O36   1.786       .  S
O32          C39   1.256       .  A
O32         Al40   1.894       .  S
O33          C42   1.264       .  A
O33         Al40   1.920       .  S
O34         Al40   1.892       .  S
O35          C42   1.261       .  A
O36         Al40   1.780       .  S
O37         C454   1.255   1_554  A
C38         O439   1.265       .  A
C38         O453   1.255       .  A
C38         C348   1.478       .  S
C39         C411   1.480       .  S
C42         C308   1.472       .  S
C43          O44   1.272       .  A
C43         C328   1.501       .  S
O45          C60   1.262       .  A
O45         Al53   1.909       .  S
C46          O56   1.257       .  A
C46          O47   1.257       .  A
C46         C351   1.481       .  S
O47         Al49   1.915       .  S
O48          C50   1.262       .  A
O48         Al49   1.888       .  S
Al49         O57   1.904       .  S
Al49         O59   1.892       .  S
Al49         O58   1.787       .  S
C50          O63   1.266       .  A
C50         C278   1.472       .  S
O51          C61   1.256       .  A
O51         Al53   1.892       .  S
O52          C65   1.264       .  A
O52         Al62   1.911       .  S
Al53         O66   1.937       .  S
Al53         O63   1.934       .  S
Al53         O58   1.794       .  S
O54          C61   1.260       .  A
O54         Al62   1.901       .  S
O55          C64   1.266       .  A
O55         Al62   1.924       .  S
O56         Al62   1.893       .  S
O57          C64   1.264       .  A
O58         Al62   1.784       .  S
O59          C60   1.258       .  A
C60         C341   1.475       .  S
C61         C298   1.470       .  S
C64         C268   1.478       .  S
C65          O66   1.267       .  A
C65         C288   1.510       .  S
O67          C82   1.260       .  A
O67        Al491   1.917       .  S
C68          O78   1.260       .  A
C68          O69   1.262       .  A
C68         C391   1.470       .  S
O69         Al71   1.926       .  S
O70          C72   1.261       .  A
O70         Al71   1.874       .  S
Al71         O79   1.901       .  S
Al71        O497   1.870       .  S
Al71         O80   1.790       .  S
C72          O85   1.268       .  A
C72         C248   1.469       .  S
O73          C83   1.256       .  A
O73         Al75   1.916       .  S
O74          C87   1.267       .  A
O74         Al84   1.906       .  S
Al75         O88   1.947       .  S
Al75         O85   1.929       .  S
Al75        O483   1.916       .  S
Al75         O80   1.795       .  S
O76          C83   1.248       .  A
O76         Al84   1.860       .  S
O77          C86   1.256       .  A
O77         Al84   1.899       .  S
O78         Al84   1.899       .  S
O79          C86   1.259       .  A
O80         Al84   1.785       .  S
O81          C82   1.252       .  A
O81        Al487   1.870   1_554  S
C82         C401   1.476       .  S
C83         C301   1.467       .  S
C86         C238   1.480       .  S
C87          O88   1.274       .  A
C87         C674   1.501       .  S
O89         C104   1.271       .  A
O89         Al97   1.929       .  S
C90         O100   1.258       .  A
C90          O91   1.261       .  A
C90         C208   1.498       .  S
O91         Al93   1.922       .  S
O92          C94   1.254       .  A
O92         Al93   1.878       .  S
Al93        O101   1.874       .  S
Al93        O103   1.934       .  S
Al93        O102   1.770       .  S
C94         O107   1.264       .  A
C94         C231   1.475       .  S
O95         C105   1.265       .  A
O95         Al97   1.903       .  S
O96         C525   1.261       .  A
O96        Al106   1.903   1_556  S
Al97        O110   1.934   1_554  S
Al97        O107   1.940       .  S
Al97        O102   1.788       .  S
O98         C105   1.264       .  A
O98        Al106   1.915       .  S
O99         C108   1.266       .  A
O99        Al106   1.936       .  S
O100       Al106   1.904       .  S
O101        C108   1.257       .  A
O102       Al106   1.783       .  S
O103        C104   1.270       .  A
C104        C261   1.507       .  S
C105        C311   1.463       .  S
C108       C1153   1.478   1_545  S
C109        O512   1.261       .  A
C109        O526   1.265       .  A
C109        C218   1.492       .  S
O110        C525   1.265       .  A
O111        C126   1.269       .  A
O111       Al119   1.930       .  S
C112        O122   1.257       .  A
C112        O113   1.266       .  A
C112        C201   1.481       .  S
O113       Al115   1.939       .  S
O114        C116   1.254       .  A
O114       Al115   1.878       .  S
Al115       O123   1.887       .  S
Al115       O125   1.925       .  S
Al115       O124   1.775       .  S
C116        O129   1.265       .  A
C116        C228   1.487       .  S
O117        C127   1.264       .  A
O117       Al119   1.915       .  S
O118        C131   1.265       .  A
O118       Al128   1.899       .  S
Al119       O132   1.942       .  S
Al119       O129   1.932       .  S
Al119       O124   1.784       .  S
O120        C127   1.256       .  A
O120       Al128   1.888       .  S
O121        C130   1.258       .  A
O121       Al128   1.914       .  S
O122       Al128   1.889       .  S
O123        C130   1.258       .  A
O124       Al128   1.780       .  S
O125        C126   1.268       .  A
C126        C291   1.507       .  S
C127        C358   1.470       .  S
C130       C1203   1.468   1_545  S
C131        O132   1.270       .  A
C131        C191   1.487       .  S
O133        C148   1.275       .  A
O133       Al141   1.944       .  S
C134        O144   1.256       .  A
C134        O135   1.263       .  A
C134        C221   1.480       .  S
O135       Al137   1.920       .  S
O136        C138   1.253       .  A
O136       Al137   1.874       .  S
Al137       O145   1.874       .  S
Al137       O147   1.939       .  S
Al137       O146   1.776       .  S
C138        O151   1.264       .  A
C138        C178   1.487       .  S
O139        C149   1.267       .  A
O139       Al141   1.920       .  S
O140        C153   1.258       .  A
O140       Al150   1.887       .  S
Al141       O154   1.954       .  S
Al141       O151   1.946       .  S
Al141       O146   1.792       .  S
O142        C149   1.265       .  A
O142       Al150   1.925       .  S
O143        C152   1.264       .  A
O143       Al150   1.928       .  S
O144       Al150   1.893       .  S
O145        C152   1.256       .  A
O146       Al150   1.790       .  S
O147        C148   1.269       .  A
C148        C378   1.516       .  S
C149        C271   1.477       .  S
C152        C281   1.470       .  S
C153        O154   1.268       .  A
C153        C211   1.485       .  S
O155        C586   1.267   1_554  A
O155       Al579   1.919       .  S
C156        O166   1.258       .  A
C156        O157   1.265       .  A
C156        C188   1.483       .  S
O157       Al159   1.939       .  S
O158        C160   1.259       .  A
O158       Al159   1.892       .  S
Al159       O167   1.883       .  S
Al159       O169   1.929       .  S
Al159       O168   1.780       .  S
C160        O173   1.264       .  A
C160        C181   1.492       .  S
O161        C171   1.263       .  A
O161       Al163   1.905       .  S
O162        C175   1.264       .  A
O162       Al588   1.906   1_554  S
Al163       O173   1.931       .  S
Al163       O571   1.920       .  S
Al163       O592   1.934       .  S
Al163       O168   1.784       .  S
O164        C171   1.260       .  A
O164       Al172   1.896       .  S
O165        C174   1.262       .  A
O165       Al172   1.925       .  S
O166       Al172   1.894       .  S
O167        C174   1.258       .  A
O168       Al172   1.783       .  S
O169        C170   1.267       .  A
C170        O571   1.267       .  A
C170        C747   1.504       .  S
C171        C241   1.461       .  S
Al172       O578   1.906       .  S
C174        C251   1.469       .  S
C175        O176   1.267       .  A
C175        C198   1.486       .  S
O176       Al579   1.934       .  S
C177        C178   1.407       .  A
C177        C182   1.399       .  A
C177        H184   1.084       .  S
C178        C179   1.412       .  A
C179        C180   1.403       .  A
C179       Br186   1.921       .  S
C180        C181   1.410       .  A
C180        H185   1.083       .  S
C181        C182   1.415       .  A
C182       Br183   1.923       .  S
C187        C188   1.405       .  A
C187        C192   1.401       .  A
C187        H194   1.081       .  S
C188        C189   1.408       .  A
C189        C190   1.405       .  A
C189       Br196   1.920       .  S
C190        C191   1.411       .  A
C190        H195   1.084       .  S
C191        C192   1.410       .  A
C192       Br193   1.920       .  S
C197        C198   1.408       .  A
C197        C202   1.403       .  A
C197        H204   1.082       .  S
C198        C199   1.409       .  A
C199        C200   1.403       .  A
C199       Br206   1.918       .  S
C200        C201   1.407       .  A
C200        H205   1.084       .  S
C201        C202   1.406       .  A
C202       Br203   1.919       .  S
C207        C208   1.414       .  A
C207        C212   1.410       .  A
C207        H214   1.083       .  S
C208        C209   1.418       .  A
C209        C210   1.398       .  A
C209       Br216   1.925       .  S
C210        C211   1.403       .  A
C210        H215   1.084       .  S
C211        C212   1.406       .  A
C212       Br213   1.916       .  S
C217        C218   1.410       .  A
C217        C222   1.406       .  A
C217        H224   1.083       .  S
C218        C219   1.419       .  A
C219        C220   1.398       .  A
C219       Br226   1.920       .  S
C220        C221   1.399       .  A
C220        H225   1.084       .  S
C221        C222   1.409       .  A
C222       Br223   1.918       .  S
C227        C228   1.405   1_455  A
C227        C232   1.399       .  A
C227        H234   1.083       .  S
C228        C229   1.419       .  A
C229        C230   1.399       .  A
C229       Br236   1.923       .  S
C230        C231   1.400   1_655  A
C230        H235   1.084       .  S
C231        C232   1.409       .  A
C232       Br233   1.919       .  S
C237        C238   1.410       .  A
C237       C1074   1.402       .  A
C237        H244   1.083       .  S
C238       C1071   1.418       .  A
C239        C240   1.388   1_565  A
C239       C1070   1.418       .  A
C239       Br246   1.926       .  S
C240        C241   1.395       .  A
C240        H245   1.081       .  S
C241        C242   1.403       .  A
C242       C1069   1.402   1_545  A
C242      Br1075   1.916       .  S
Br243      C1074   1.916       .  S
C247        C248   1.403       .  A
C247        C252   1.395       .  A
C247        H254   1.084       .  S
C248        C249   1.407       .  A
C249        C250   1.402       .  A
C249       Br256   1.918       .  S
C250        C251   1.404       .  A
C250        H255   1.084       .  S
C251        C252   1.406       .  A
C252       Br253   1.921       .  S
C257        C262   1.410   1_655  A
C257        C674   1.410       .  A
C257        H264   1.083       .  S
C258        C503   1.500       .  S
C258        C259   1.412   1_556  A
C258        C673   1.410       .  A
C259        C260   1.404   1_655  A
C259       Br266   1.921       .  S
C260       C1093   1.412       .  A
C260        H265   1.083       .  S
C261       C1092   1.412   1_545  A
C261       C1510   1.418   1_554  A
C262       C1509   1.418       .  A
C262      Br1095   1.920       .  S
Br263      C1094   1.920       .  S
C267        C268   1.402       .  A
C267       C1104   1.401       .  A
C267        H274   1.084       .  S
C268        C269   1.412       .  A
C269       C1102   1.402       .  A
C269       Br276   1.920       .  S
C270        C271   1.402       .  A
C270       C1101   1.402   1_545  A
C270        H275   1.084       .  S
C271        C272   1.409       .  A
C272       C1099   1.401   1_545  A
C272       Br273   1.913       .  S
C277        C278   1.405       .  A
C277        C282   1.403       .  A
C277        H284   1.084       .  S
C278        C279   1.407       .  A
C279        C280   1.396       .  A
C279       Br286   1.919       .  S
C280        C281   1.402       .  A
C280        H285   1.084       .  S
C281        C282   1.408       .  A
C282       Br283   1.918       .  S
C287        C288   1.413       .  A
C287       C1124   1.411       .  A
C287        H294   1.083       .  S
C288        C289   1.418       .  A
C289        C290   1.404   1_455  A
C289       Br296   1.922       .  S
C290       C1123   1.409       .  A
C290        H295   1.083       .  S
C291        C292   1.416   1_655  A
C291       C1122   1.409   1_545  A
C292       C1119   1.411   1_545  A
C292       Br293   1.920       .  S
C297        C298   1.404       .  A
C297        C302   1.399       .  A
C297        H304   1.084       .  S
C298        C299   1.407   1_455  A
C299        C300   1.398       .  A
C299       Br306   1.920       .  S
C300        C301   1.406       .  A
C300        H305   1.084       .  S
C301        C302   1.405   1_655  A
C302       Br303   1.918       .  S
C307        C308   1.404       .  A
C307        C312   1.400       .  A
C307        H314   1.084   1_554  S
C308        C309   1.412       .  A
C309        C310   1.396       .  A
C309       Br316   1.920       .  S
C310        C311   1.399       .  A
C310        H315   1.084       .  S
C311        C312   1.407       .  A
C312       Br313   1.919   1_554  S
C317        C318   1.403       .  A
C317        C322   1.393       .  A
C317        H324   1.084       .  S
C318        C319   1.416       .  A
C319        C320   1.405       .  A
C319       Br326   1.920   1_554  S
C320        C321   1.404       .  A
C320       H1157   1.084       .  S
C321        C940   1.478       .  S
C321        C322   1.412       .  A
C322       Br323   1.923       .  S
H325       C1152   1.084       .  S
C327        C328   1.410       .  A
C327        C332   1.406       .  A
C327        H334   1.083       .  S
C328        C329   1.414       .  A
C329        C330   1.406   1_554  A
C329       Br336   1.921   1_554  S
C330        C331   1.411   1_556  A
C330        H751   1.083       .  S
C331        C586   1.504   1_554  S
C331        C332   1.417       .  A
C332       Br333   1.921       .  S
H335        C746   1.083       .  S
C337        C338   1.403       .  A
C337        C342   1.395       .  A
C337        H344   1.084       .  S
C338        C339   1.410       .  A
C339        C340   1.404       .  A
C339       Br346   1.917       .  S
C340        C341   1.406       .  A
C340        H345   1.083       .  S
C341        C342   1.409       .  A
C342       Br343   1.922       .  S
C347        C348   1.406       .  A
C347        C352   1.390       .  A
C347        H354   1.084       .  S
C348        C349   1.405       .  A
C349        C350   1.408       .  A
C349       Br356   1.916       .  S
C350        C351   1.413       .  A
C350        H355   1.083       .  S
C351        C352   1.406       .  A
C352       Br353   1.922       .  S
C357        C358   1.406       .  A
C357        C362   1.401       .  A
C357        H364   1.083       .  S
C358        C359   1.417       .  A
C359        C360   1.382       .  A
C359       Br366   1.922       .  S
C360        C361   1.392       .  A
C360        H365   1.084       .  S
C361        C362   1.406       .  A
C362       Br363   1.917       .  S
C367        C368   1.404       .  A
C367        C372   1.393       .  A
C367        H374   1.084       .  S
C368        C369   1.405       .  A
C369        C370   1.402       .  A
C369       Br376   1.918       .  S
C370        C371   1.407       .  A
C370        H375   1.084       .  S
C371        C962   1.468       .  S
C371        C372   1.405       .  A
C372       Br373   1.922       .  S
C377        C378   1.408       .  A
C377        C382   1.414       .  A
C377        H384   1.083       .  S
C378        C379   1.423       .  A
C379        C380   1.410       .  A
C379       Br386   1.923       .  S
C380        C381   1.408       .  A
C380        H385   1.083       .  S
C381        C382   1.425       .  A
C382       Br383   1.920       .  S
C387        C388   1.405       .  A
C387        C392   1.401       .  A
C387        H394   1.084       .  S
C388        C389   1.408       .  A
C389        C390   1.400       .  A
C389       Br396   1.918       .  S
C390        C391   1.402       .  A
C390        H395   1.084       .  S
C391        C392   1.407       .  A
C392       Br393   1.920       .  S
C397        C398   1.400       .  A
C397        C402   1.397       .  A
C397        H404   1.082       .  S
C398        C399   1.411       .  A
C399        C400   1.404       .  A
C399       Br406   1.919       .  S
C400        C401   1.405       .  A
C400        H405   1.084       .  S
C401        C402   1.410       .  A
C402       Br403   1.920       .  S
C407        C408   1.395       .  A
C407        C412   1.394       .  A
C407        H414   1.085       .  S
C408        C409   1.406       .  A
C409        C410   1.402       .  A
C409       Br416   1.914       .  S
C410        C411   1.405       .  A
C410        H415   1.083       .  S
C411        C412   1.417       .  A
C412       Br413   1.917       .  S
O417        C432   1.259       .  A
O417       Al425   1.911       .  S
C418        O428   1.261       .  A
C418        O419   1.258       .  A
C418        C814   1.476       .  S
O419       Al421   1.918       .  S
O420        C422   1.259       .  A
O420       Al421   1.859       .  S
Al421       O429   1.882       .  S
Al421       O431   1.877       .  S
Al421       O430   1.796       .  S
C422        O435   1.271       .  A
C422        C784   1.466       .  S
O423        C433   1.255       .  A
O423       Al425   1.909       .  S
O424        C437   1.267       .  A
O424       Al434   1.922       .  S
Al425       O438   1.958       .  S
Al425       O435   1.944       .  S
Al425       O430   1.794       .  S
O426        C433   1.250       .  A
O426       Al434   1.866       .  S
O427        C436   1.262       .  A
O427       Al434   1.900       .  S
O428       Al434   1.910       .  S
O429        C436   1.258       .  A
O430       Al434   1.782       .  S
O431        C432   1.252       .  A
C432        C804   1.470       .  S
C433        C824   1.462       .  S
C436        C777   1.456       .  S
C437        O438   1.276       .  A
C437        C797   1.519       .  S
O439       Al447   1.929       .  S
C440        O450   1.258       .  A
C440        O441   1.259       .  A
C440        C754   1.477       .  S
O441       Al443   1.922       .  S
O442        C444   1.262       .  A
O442       Al443   1.880       .  S
Al443       O451   1.898       .  S
Al443       O453   1.872       .  S
Al443       O452   1.783       .  S
C444        O457   1.268       .  A
C444        C734   1.481       .  S
O445        C455   1.260       .  A
O445       Al447   1.914       .  S
O446        C459   1.266       .  A
O446       Al456   1.900       .  S
Al447       O460   1.951       .  S
Al447       O457   1.938       .  S
Al447       O452   1.786       .  S
O448        C455   1.256       .  A
O448       Al456   1.894       .  S
O449        C458   1.264       .  A
O449       Al456   1.920       .  S
O450       Al456   1.892       .  S
O451        C458   1.261       .  A
O452       Al456   1.780       .  S
C454        C764   1.477       .  S
C455        C827   1.480       .  S
C458        C724   1.473       .  S
C459        O460   1.273       .  A
C459        C744   1.502       .  S
O461        C476   1.262       .  A
O461       Al469   1.910       .  S
C462        O472   1.257       .  A
C462        O463   1.257       .  A
C462        C767   1.480       .  S
O463       Al465   1.915       .  S
O464        C466   1.261       .  A
O464       Al465   1.888       .  S
Al465       O473   1.904       .  S
Al465       O475   1.891       .  S
Al465       O474   1.787       .  S
C466        O479   1.266       .  A
C466        C694   1.472       .  S
O467        C477   1.256       .  A
O467       Al469   1.893       .  S
O468        C481   1.264       .  A
O468       Al478   1.912       .  S
Al469       O482   1.938       .  S
Al469       O479   1.934       .  S
Al469       O474   1.793       .  S
O470        C477   1.260       .  A
O470       Al478   1.901       .  S
O471        C480   1.266       .  A
O471       Al478   1.924       .  S
O472       Al478   1.892       .  S
O473        C480   1.264       .  A
O474       Al478   1.784       .  S
O475        C476   1.258       .  A
C476        C757   1.476       .  S
C477        C714   1.470       .  S
C480        C684   1.478       .  S
C481        O482   1.267       .  A
C481        C704   1.510       .  S
O483        C498   1.259       .  A
C484        O494   1.260       .  A
C484        O485   1.262       .  A
C484        C807   1.469       .  S
O485       Al487   1.926       .  S
O486        C488   1.261       .  A
O486       Al487   1.874       .  S
Al487       O495   1.902       .  S
Al487       O496   1.790       .  S
C488        O501   1.268   1_556  A
C488        C664   1.469       .  S
O489        C499   1.256       .  A
O489       Al491   1.917   1_556  S
O490        C503   1.267       .  A
O490       Al500   1.905       .  S
Al491       O504   1.947       .  S
Al491       O501   1.929       .  S
Al491       O496   1.795   1_554  S
O492        C499   1.248       .  A
O492       Al500   1.861       .  S
O493        C502   1.256       .  A
O493       Al500   1.899       .  S
O494       Al500   1.899       .  S
O495        C502   1.260       .  A
O496       Al500   1.785       .  S
O497        C498   1.252       .  A
C498        C817   1.476       .  S
C499        C717   1.467       .  S
C502        C654   1.480       .  S
C503        O504   1.274   1_556  A
O505        C520   1.271       .  A
O505       Al513   1.929       .  S
C506        O516   1.258       .  A
C506        O507   1.261       .  A
C506        C624   1.498       .  S
O507       Al509   1.924       .  S
O508        C510   1.254       .  A
O508       Al509   1.878       .  S
Al509       O517   1.874       .  S
Al509       O519   1.935       .  S
Al509       O518   1.770       .  S
C510        O523   1.264       .  A
C510        C647   1.475       .  S
O511        C521   1.265       .  A
O511       Al513   1.904       .  S
O512       Al522   1.902       .  S
Al513       O526   1.934       .  S
Al513       O523   1.939       .  S
Al513       O518   1.788       .  S
O514        C521   1.264       .  A
O514       Al522   1.916       .  S
O515        C524   1.266       .  A
O515       Al522   1.936       .  S
O516       Al522   1.904       .  S
O517        C524   1.257       .  A
O518       Al522   1.783       .  S
O519        C520   1.270       .  A
C520        C677   1.508       .  S
C521        C727   1.463       .  S
C524       C1569   1.478   1_545  S
C525        C634   1.493       .  S
O527        C542   1.268       .  A
O527       Al535   1.929       .  S
C528        O538   1.257       .  A
C528        O529   1.266       .  A
C528        C617   1.481       .  S
O529       Al531   1.940       .  S
O530        C532   1.254       .  A
O530       Al531   1.877       .  S
Al531       O539   1.887       .  S
Al531       O541   1.925       .  S
Al531       O540   1.775       .  S
C532        O545   1.265       .  A
C532        C644   1.486       .  S
O533        C543   1.264       .  A
O533       Al535   1.915       .  S
O534        C547   1.265       .  A
O534       Al544   1.899       .  S
Al535       O548   1.942       .  S
Al535       O545   1.932       .  S
Al535       O540   1.784       .  S
O536        C543   1.256       .  A
O536       Al544   1.888       .  S
O537        C546   1.258       .  A
O537       Al544   1.914       .  S
O538       Al544   1.890       .  S
O539        C546   1.258       .  A
O540       Al544   1.780       .  S
O541        C542   1.268       .  A
C542        C707   1.508       .  S
C543        C774   1.470       .  S
C546       C1619   1.468   1_545  S
C547        O548   1.270       .  A
C547        C607   1.487       .  S
O549        C564   1.275       .  A
O549       Al557   1.944       .  S
C550        O560   1.256       .  A
C550        O551   1.263       .  A
C550        C637   1.480       .  S
O551       Al553   1.920       .  S
O552        C554   1.253       .  A
O552       Al553   1.874       .  S
Al553       O561   1.874       .  S
Al553       O563   1.939       .  S
Al553       O562   1.777       .  S
C554        O567   1.264       .  A
C554        C594   1.487       .  S
O555        C565   1.267       .  A
O555       Al557   1.920       .  S
O556        C569   1.257       .  A
O556       Al566   1.887       .  S
Al557       O570   1.955       .  S
Al557       O567   1.947       .  S
Al557       O562   1.792       .  S
O558        C565   1.266       .  A
O558       Al566   1.925       .  S
O559        C568   1.264       .  A
O559       Al566   1.928       .  S
O560       Al566   1.893       .  S
O561        C568   1.256       .  A
O562       Al566   1.790       .  S
O563        C564   1.269       .  A
C564        C794   1.516       .  S
C565        C687   1.477       .  S
C568        C697   1.470       .  S
C569        O570   1.268       .  A
C569        C627   1.485       .  S
C572        O582   1.258       .  A
C572        O573   1.265       .  A
C572        C604   1.482       .  S
O573       Al575   1.938       .  S
O574        C576   1.259       .  A
O574       Al575   1.892       .  S
Al575       O583   1.882       .  S
Al575       O585   1.929       .  S
Al575       O584   1.780       .  S
C576        O589   1.264       .  A
C576        C597   1.492       .  S
O577        C587   1.262       .  A
O577       Al579   1.905   1_556  S
O578        C591   1.264       .  A
Al579       O589   1.931   1_554  S
Al579       O584   1.784   1_554  S
O580        C587   1.260   1_554  A
O580       Al588   1.897   1_554  S
O581        C590   1.262       .  A
O581       Al588   1.926       .  S
O582       Al588   1.894       .  S
O583        C590   1.258       .  A
O584       Al588   1.783       .  S
O585        C586   1.267       .  A
C587        C657   1.461       .  S
C590        C667   1.469       .  S
C591        O592   1.267       .  A
C591        C614   1.486       .  S
C593        C594   1.407       .  A
C593        C598   1.399       .  A
C593        H600   1.084       .  S
C594        C595   1.412       .  A
C595        C596   1.403       .  A
C595       Br602   1.921       .  S
C596        C597   1.410       .  A
C596        H601   1.083       .  S
C597        C598   1.415       .  A
C598       Br599   1.923       .  S
C603        C604   1.404       .  A
C603        C608   1.401       .  A
C603        H610   1.081       .  S
C604        C605   1.408       .  A
C605        C606   1.405       .  A
C605       Br612   1.920       .  S
C606        C607   1.411       .  A
C606        H611   1.084       .  S
C607        C608   1.410       .  A
C608       Br609   1.920       .  S
C613        C614   1.409       .  A
C613        C618   1.403       .  A
C613        H620   1.082       .  S
C614        C615   1.410       .  A
C615        C616   1.403       .  A
C615       Br622   1.918       .  S
C616        C617   1.407       .  A
C616        H621   1.084       .  S
C617        C618   1.406       .  A
C618       Br619   1.919       .  S
C623        C624   1.414       .  A
C623        C628   1.410       .  A
C623        H630   1.083       .  S
C624        C625   1.418       .  A
C625        C626   1.398       .  A
C625       Br632   1.925       .  S
C626        C627   1.403       .  A
C626        H631   1.084       .  S
C627        C628   1.406       .  A
C628       Br629   1.916       .  S
C633        C634   1.410       .  A
C633        C638   1.406       .  A
C633        H640   1.083       .  S
C634        C635   1.419       .  A
C635        C636   1.398       .  A
C635       Br642   1.920       .  S
C636        C637   1.399       .  A
C636        H641   1.084       .  S
C637        C638   1.409       .  A
C638       Br639   1.918       .  S
C643        C644   1.405   1_455  A
C643        C648   1.398       .  A
C643        H650   1.083       .  S
C644        C645   1.419       .  A
C645        C646   1.399       .  A
C645       Br652   1.923       .  S
C646        C647   1.400   1_655  A
C646        H651   1.084       .  S
C647        C648   1.409       .  A
C648       Br649   1.919       .  S
C653        C654   1.410       .  A
C653       C1490   1.402   1_556  A
C653        H660   1.083   1_556  S
C654       C1487   1.419       .  A
C655       C1486   1.419       .  A
C655        C656   1.388   1_565  A
C655       Br662   1.926       .  S
C656        C657   1.394       .  A
C656        H661   1.081       .  S
C657        C658   1.403   1_556  A
C658       C1485   1.402   1_545  A
C658      Br1491   1.916       .  S
Br659      C1490   1.916       .  S
C663        C664   1.403   1_554  A
C663        C668   1.394       .  A
C663        H670   1.084       .  S
C664        C665   1.407       .  A
C665        C666   1.403       .  A
C665       Br672   1.918       .  S
C666        C667   1.405       .  A
C666        H671   1.084       .  S
C667        C668   1.406   1_556  A
C668       Br669   1.921       .  S
C673        C678   1.409   1_655  A
C673        H680   1.083       .  S
C674        C675   1.412       .  A
C675        C676   1.404   1_655  A
C675       Br682   1.921       .  S
C676       C1509   1.412       .  A
C676        H681   1.083       .  S
C677       C1508   1.412   1_545  A
C677       C1094   1.418       .  A
C678       C1093   1.418   1_556  A
C678      Br1511   1.920       .  S
Br679      C1510   1.920       .  S
C683        C684   1.402       .  A
C683       C1520   1.401       .  A
C683        H690   1.084       .  S
C684        C685   1.412       .  A
C685       C1518   1.402       .  A
C685       Br692   1.920       .  S
C686       C1517   1.402   1_545  A
C686        C687   1.402       .  A
C686        H691   1.084       .  S
C687        C688   1.409       .  A
C688       C1515   1.401   1_545  A
C688       Br689   1.913       .  S
C693        C694   1.405       .  A
C693        C698   1.403       .  A
C693        H700   1.084       .  S
C694        C695   1.407       .  A
C695        C696   1.396       .  A
C695       Br702   1.919       .  S
C696        C697   1.402       .  A
C696        H701   1.084       .  S
C697        C698   1.408       .  A
C698       Br699   1.918       .  S
C703        C704   1.413       .  A
C703       C1540   1.411       .  A
C703        H710   1.083       .  S
C704        C705   1.418       .  A
C705        C706   1.404   1_455  A
C705       Br712   1.922       .  S
C706       C1539   1.409       .  A
C706        H711   1.083       .  S
C707       C1538   1.409   1_545  A
C707        C708   1.417   1_655  A
C708       C1535   1.411   1_545  A
C708       Br709   1.921       .  S
C713        C714   1.404       .  A
C713        C718   1.399       .  A
C713        H720   1.084       .  S
C714        C715   1.407   1_455  A
C715        C716   1.398       .  A
C715       Br722   1.920       .  S
C716        C717   1.406       .  A
C716        H721   1.084       .  S
C717        C718   1.406   1_655  A
C718       Br719   1.918       .  S
C723        C724   1.404       .  A
C723        C728   1.400       .  A
C723        H730   1.084       .  S
C724        C725   1.412       .  A
C725        C726   1.396       .  A
C725       Br732   1.920       .  S
C726        C727   1.399       .  A
C726        H731   1.084       .  S
C727        C728   1.407       .  A
C728       Br729   1.919       .  S
C733        C734   1.403       .  A
C733        C738   1.393       .  A
C733        H740   1.084       .  S
C734        C735   1.416       .  A
C735        C736   1.405       .  A
C735       Br742   1.920       .  S
C736        C737   1.404       .  A
C736       H1573   1.084       .  S
C737       C1356   1.478       .  S
C737        C738   1.412       .  A
C738       Br739   1.923       .  S
H741       C1568   1.084       .  S
C743        C744   1.410       .  A
C743        C748   1.406       .  A
C743        H750   1.083       .  S
C744        C745   1.414       .  A
C745        C746   1.406       .  A
C745       Br752   1.921       .  S
C746        C747   1.411       .  A
C747        C748   1.417       .  A
C748       Br749   1.921       .  S
C753        C754   1.403       .  A
C753        C758   1.395       .  A
C753        H760   1.084       .  S
C754        C755   1.410       .  A
C755        C756   1.404       .  A
C755       Br762   1.917       .  S
C756        C757   1.406       .  A
C756        H761   1.083       .  S
C757        C758   1.409       .  A
C758       Br759   1.922       .  S
C763        C764   1.406       .  A
C763        C768   1.390       .  A
C763        H770   1.084       .  S
C764        C765   1.405       .  A
C765        C766   1.408       .  A
C765       Br772   1.916       .  S
C766        C767   1.413       .  A
C766        H771   1.083       .  S
C767        C768   1.406       .  A
C768       Br769   1.922       .  S
C773        C774   1.406       .  A
C773        C778   1.401       .  A
C773        H780   1.083       .  S
C774        C775   1.417       .  A
C775        C776   1.382       .  A
C775       Br782   1.922       .  S
C776        C777   1.392       .  A
C776        H781   1.084       .  S
C777        C778   1.406       .  A
C778       Br779   1.917       .  S
C783        C784   1.404       .  A
C783        C788   1.393       .  A
C783        H790   1.084       .  S
C784        C785   1.405       .  A
C785        C786   1.402       .  A
C785       Br792   1.918       .  S
C786        C787   1.407       .  A
C786        H791   1.084       .  S
C787       C1378   1.468       .  S
C787        C788   1.405       .  A
C788       Br789   1.922       .  S
C793        C794   1.408       .  A
C793        C798   1.414       .  A
C793        H800   1.083       .  S
C794        C795   1.423       .  A
C795        C796   1.410       .  A
C795       Br802   1.923       .  S
C796        C797   1.408       .  A
C796        H801   1.083       .  S
C797        C798   1.424       .  A
C798       Br799   1.920       .  S
C803        C804   1.405       .  A
C803        C808   1.401       .  A
C803        H810   1.084       .  S
C804        C805   1.408       .  A
C805        C806   1.399       .  A
C805       Br812   1.918       .  S
C806        C807   1.402       .  A
C806        H811   1.084       .  S
C807        C808   1.407       .  A
C808       Br809   1.920       .  S
C813        C814   1.400       .  A
C813        C818   1.397       .  A
C813        H820   1.082       .  S
C814        C815   1.411       .  A
C815        C816   1.404       .  A
C815       Br822   1.919       .  S
C816        C817   1.405       .  A
C816        H821   1.084       .  S
C817        C818   1.410       .  A
C818       Br819   1.920       .  S
C823        C824   1.395       .  A
C823        C828   1.394       .  A
C823        H830   1.085       .  S
C824        C825   1.406       .  A
C825        C826   1.402       .  A
C825       Br832   1.914       .  S
C826        C827   1.405       .  A
C826        H831   1.083       .  S
C827        C828   1.417       .  A
C828       Br829   1.918       .  S
O833        C848   1.259       .  A
O833       Al841   1.912       .  S
C834        O844   1.261       .  A
C834        O835   1.258       .  A
C834       C1230   1.476       .  S
O835       Al837   1.919       .  S
O836        C838   1.259       .  A
O836       Al837   1.859       .  S
Al837       O845   1.882       .  S
Al837       O847   1.878       .  S
Al837       O846   1.796       .  S
C838        O851   1.271       .  A
C838       C1200   1.466       .  S
O839        C849   1.255       .  A
O839       Al841   1.909       .  S
O840        C853   1.267       .  A
O840       Al850   1.922       .  S
Al841       O854   1.958       .  S
Al841       O851   1.944       .  S
Al841       O846   1.794       .  S
O842        C849   1.250       .  A
O842       Al850   1.866       .  S
O843        C852   1.262       .  A
O843       Al850   1.900       .  S
O844       Al850   1.910       .  S
O845        C852   1.258       .  A
O846       Al850   1.782       .  S
O847        C848   1.252       .  A
C848       C1220   1.470       .  S
C849       C1240   1.462       .  S
C852       C1193   1.456       .  S
C853        O854   1.276       .  A
C853       C1213   1.520       .  S
O855       C1286   1.265       .  A
O855       Al863   1.929   1_556  S
C856        O866   1.258       .  A
C856        O857   1.259       .  A
C856       C1170   1.477       .  S
O857       Al859   1.922       .  S
O858        C860   1.262       .  A
O858       Al859   1.880       .  S
Al859       O867   1.898       .  S
Al859       O869   1.872       .  S
Al859       O868   1.783       .  S
C860        O873   1.268       .  A
C860       C1150   1.481       .  S
O861        C871   1.260       .  A
O861       Al863   1.914       .  S
O862        C875   1.266       .  A
O862       Al872   1.900       .  S
Al863       O876   1.950       .  S
Al863       O873   1.938       .  S
Al863       O868   1.786       .  S
O864        C871   1.256       .  A
O864       Al872   1.894       .  S
O865        C874   1.264       .  A
O865       Al872   1.920       .  S
O866       Al872   1.892       .  S
O867        C874   1.261       .  A
O868       Al872   1.780       .  S
O869       C1286   1.255   1_554  A
C870       O1271   1.265       .  A
C870       O1285   1.255       .  A
C870       C1180   1.478       .  S
C871       C1243   1.480       .  S
C874       C1140   1.472       .  S
C875        O876   1.272       .  A
C875       C1160   1.501       .  S
O877        C892   1.262       .  A
O877       Al885   1.909       .  S
C878        O888   1.257       .  A
C878        O879   1.257       .  A
C878       C1183   1.481       .  S
O879       Al881   1.915       .  S
O880        C882   1.262       .  A
O880       Al881   1.888       .  S
Al881       O889   1.904       .  S
Al881       O891   1.892       .  S
Al881       O890   1.787       .  S
C882        O895   1.266       .  A
C882       C1110   1.472       .  S
O883        C893   1.256       .  A
O883       Al885   1.892       .  S
O884        C897   1.263       .  A
O884       Al894   1.911       .  S
Al885       O898   1.937       .  S
Al885       O895   1.934       .  S
Al885       O890   1.794       .  S
O886        C893   1.260       .  A
O886       Al894   1.901       .  S
O887        C896   1.266       .  A
O887       Al894   1.924       .  S
O888       Al894   1.893       .  S
O889        C896   1.264       .  A
O890       Al894   1.784       .  S
O891        C892   1.258       .  A
C892       C1173   1.475       .  S
C893       C1130   1.470       .  S
C896       C1100   1.478       .  S
C897        O898   1.267       .  A
C897       C1120   1.510       .  S
O899        C914   1.260       .  A
O899      Al1323   1.917       .  S
C900        O910   1.260       .  A
C900        O901   1.262       .  A
C900       C1223   1.470       .  S
O901       Al903   1.926       .  S
O902        C904   1.261       .  A
O902       Al903   1.874       .  S
Al903       O911   1.901       .  S
Al903      O1329   1.870       .  S
Al903       O912   1.790       .  S
C904        O917   1.268       .  A
C904       C1080   1.469       .  S
O905        C915   1.256       .  A
O905       Al907   1.916       .  S
O906        C919   1.267       .  A
O906       Al916   1.906       .  S
Al907      O1315   1.916       .  S
Al907       O920   1.947       .  S
Al907       O917   1.929       .  S
Al907       O912   1.795       .  S
O908        C915   1.248       .  A
O908       Al916   1.860       .  S
O909        C918   1.256       .  A
O909       Al916   1.899       .  S
O910       Al916   1.899       .  S
O911        C918   1.259       .  A
O912       Al916   1.785       .  S
O913        C914   1.252       .  A
O913      Al1319   1.870   1_554  S
C914       C1233   1.476       .  S
C915       C1133   1.467       .  S
C918       C1070   1.480       .  S
C919        O920   1.274       .  A
C919       C1506   1.501       .  S
O921        C936   1.271       .  A
O921       Al929   1.929       .  S
C922        O932   1.258       .  A
C922        O923   1.261       .  A
C922       C1040   1.498       .  S
O923       Al925   1.922       .  S
O924        C926   1.254       .  A
O924       Al925   1.878       .  S
Al925       O933   1.874       .  S
Al925       O935   1.934       .  S
Al925       O934   1.770       .  S
C926        O939   1.264       .  A
C926       C1063   1.475       .  S
O927        C937   1.265       .  A
O927       Al929   1.903       .  S
O928       C1357   1.261       .  A
O928       Al938   1.903   1_556  S
Al929       O942   1.934   1_554  S
Al929       O939   1.940       .  S
Al929       O934   1.788       .  S
O930        C937   1.264       .  A
O930       Al938   1.916       .  S
O931        C940   1.266       .  A
O931       Al938   1.936       .  S
O932       Al938   1.904       .  S
O933        C940   1.257       .  A
O934       Al938   1.783       .  S
O935        C936   1.270       .  A
C936       C1093   1.507       .  S
C937       C1143   1.463       .  S
C941       O1344   1.261       .  A
C941       O1358   1.265       .  A
C941       C1050   1.492       .  S
O942       C1357   1.265       .  A
O943        C958   1.269       .  A
O943       Al951   1.929       .  S
C944        O954   1.257       .  A
C944        O945   1.266       .  A
C944       C1033   1.481       .  S
O945       Al947   1.939       .  S
O946        C948   1.254       .  A
O946       Al947   1.878       .  S
Al947       O955   1.887       .  S
Al947       O957   1.925       .  S
Al947       O956   1.775       .  S
C948        O961   1.265       .  A
C948       C1060   1.487       .  S
O949        C959   1.264       .  A
O949       Al951   1.915       .  S
O950        C963   1.265       .  A
O950       Al960   1.899       .  S
Al951       O964   1.942       .  S
Al951       O961   1.932       .  S
Al951       O956   1.784       .  S
O952        C959   1.256       .  A
O952       Al960   1.888       .  S
O953        C962   1.258       .  A
O953       Al960   1.914       .  S
O954       Al960   1.889       .  S
O955        C962   1.258       .  A
O956       Al960   1.780       .  S
O957        C958   1.268       .  A
C958       C1123   1.507       .  S
C959       C1190   1.470       .  S
C963        O964   1.270       .  A
C963       C1023   1.487       .  S
O965        C980   1.275       .  A
O965       Al973   1.944       .  S
C966        O976   1.256       .  A
C966        O967   1.263       .  A
C966       C1053   1.480       .  S
O967       Al969   1.920       .  S
O968        C970   1.253       .  A
O968       Al969   1.874       .  S
Al969       O977   1.874       .  S
Al969       O979   1.939       .  S
Al969       O978   1.776       .  S
C970        O983   1.264       .  A
C970       C1010   1.487       .  S
O971        C981   1.267       .  A
O971       Al973   1.920       .  S
O972        C985   1.258       .  A
O972       Al982   1.887       .  S
Al973       O986   1.954       .  S
Al973       O983   1.946       .  S
Al973       O978   1.792       .  S
O974        C981   1.265       .  A
O974       Al982   1.925       .  S
O975        C984   1.264       .  A
O975       Al982   1.928       .  S
O976       Al982   1.893       .  S
O977        C984   1.256       .  A
O978       Al982   1.790       .  S
O979        C980   1.269       .  A
C980       C1210   1.516       .  S
C981       C1103   1.477       .  S
C984       C1113   1.470       .  S
C985        O986   1.268       .  A
C985       C1043   1.485       .  S
O987       C1418   1.267   1_554  A
O987      Al1411   1.919       .  S
C988        O998   1.258       .  A
C988        O989   1.265       .  A
C988       C1020   1.483       .  S
O989       Al991   1.939       .  S
O990        C992   1.259       .  A
O990       Al991   1.892       .  S
Al991       O999   1.883       .  S
Al991      O1001   1.929       .  S
Al991      O1000   1.780       .  S
C992       O1005   1.264       .  A
C992       C1013   1.492       .  S
O993       C1003   1.263       .  A
O993       Al995   1.905       .  S
O994       C1007   1.264       .  A
O994      Al1420   1.906   1_554  S
Al995      O1403   1.920       .  S
Al995      O1424   1.934       .  S
Al995      O1005   1.931       .  S
Al995      O1000   1.784       .  S
O996       C1003   1.260       .  A
O996      Al1004   1.896       .  S
O997       C1006   1.262       .  A
O997      Al1004   1.925       .  S
O998      Al1004   1.894       .  S
O999       C1006   1.258       .  A
O1000     Al1004   1.783       .  S
O1001      C1002   1.267       .  A
C1002      O1403   1.267       .  A
C1002      C1579   1.504       .  S
C1003      C1073   1.461       .  S
Al1004     O1410   1.906       .  S
C1006      C1083   1.469       .  S
C1007      O1008   1.267       .  A
C1007      C1030   1.486       .  S
O1008     Al1411   1.934       .  S
C1009      C1010   1.407       .  A
C1009      C1014   1.399       .  A
C1009      H1016   1.084       .  S
C1010      C1011   1.412       .  A
C1011      C1012   1.403       .  A
C1011     Br1018   1.921       .  S
C1012      C1013   1.410       .  A
C1012      H1017   1.083       .  S
C1013      C1014   1.415       .  A
C1014     Br1015   1.923       .  S
C1019      C1020   1.405       .  A
C1019      C1024   1.401       .  A
C1019      H1026   1.081       .  S
C1020      C1021   1.408       .  A
C1021      C1022   1.405       .  A
C1021     Br1028   1.920       .  S
C1022      C1023   1.411       .  A
C1022      H1027   1.084       .  S
C1023      C1024   1.410       .  A
C1024     Br1025   1.920       .  S
C1029      C1030   1.408       .  A
C1029      C1034   1.403       .  A
C1029      H1036   1.082       .  S
C1030      C1031   1.409       .  A
C1031      C1032   1.403       .  A
C1031     Br1038   1.918       .  S
C1032      C1033   1.407       .  A
C1032      H1037   1.084       .  S
C1033      C1034   1.406       .  A
C1034     Br1035   1.919       .  S
C1039      C1040   1.414       .  A
C1039      C1044   1.410       .  A
C1039      H1046   1.083       .  S
C1040      C1041   1.418       .  A
C1041      C1042   1.398       .  A
C1041     Br1048   1.925       .  S
C1042      C1043   1.402       .  A
C1042      H1047   1.084       .  S
C1043      C1044   1.406       .  A
C1044     Br1045   1.916       .  S
C1049      C1050   1.410       .  A
C1049      C1054   1.407       .  A
C1049      H1056   1.083       .  S
C1050      C1051   1.419       .  A
C1051      C1052   1.398       .  A
C1051     Br1058   1.920       .  S
C1052      C1053   1.399       .  A
C1052      H1057   1.084       .  S
C1053      C1054   1.409       .  A
C1054     Br1055   1.918       .  S
C1059      C1060   1.405   1_455  A
C1059      C1064   1.398       .  A
C1059      H1066   1.083       .  S
C1060      C1061   1.419       .  A
C1061      C1062   1.399       .  A
C1061     Br1068   1.923       .  S
C1062      C1063   1.400   1_655  A
C1062      H1067   1.084       .  S
C1063      C1064   1.409       .  A
C1064     Br1065   1.919       .  S
C1069      C1070   1.410       .  A
C1069      H1076   1.083       .  S
C1071      C1072   1.388       .  A
C1071     Br1078   1.926       .  S
C1072      C1073   1.395       .  A
C1072      H1077   1.081       .  S
C1073      C1074   1.403       .  A
C1079      C1080   1.403       .  A
C1079      C1084   1.395       .  A
C1079      H1086   1.084       .  S
C1080      C1081   1.407       .  A
C1081      C1082   1.402       .  A
C1081     Br1088   1.918       .  S
C1082      C1083   1.404       .  A
C1082      H1087   1.084       .  S
C1083      C1084   1.406       .  A
C1084     Br1085   1.921       .  S
C1089      C1506   1.410       .  A
C1089      C1094   1.410   1_665  A
C1089      H1096   1.083       .  S
C1090      C1335   1.500       .  S
C1090      C1505   1.410       .  A
C1090      C1091   1.412   1_556  A
C1091      C1092   1.404   1_655  A
C1091     Br1098   1.921       .  S
C1092      H1097   1.083       .  S
C1099      C1100   1.402       .  A
C1099      H1106   1.084       .  S
C1100      C1101   1.412       .  A
C1101     Br1108   1.920       .  S
C1102      C1103   1.402       .  A
C1102      H1107   1.084       .  S
C1103      C1104   1.409       .  A
C1104     Br1105   1.913       .  S
C1109      C1110   1.405       .  A
C1109      C1114   1.403       .  A
C1109      H1116   1.084       .  S
C1110      C1111   1.407       .  A
C1111      C1112   1.396       .  A
C1111     Br1118   1.919       .  S
C1112      C1113   1.402       .  A
C1112      H1117   1.084       .  S
C1113      C1114   1.408       .  A
C1114     Br1115   1.918       .  S
C1119      C1120   1.413       .  A
C1119      H1126   1.083       .  S
C1120      C1121   1.418       .  A
C1121      C1122   1.404   1_455  A
C1121     Br1128   1.922       .  S
C1122      H1127   1.083       .  S
C1123      C1124   1.416   1_655  A
C1124     Br1125   1.920       .  S
C1129      C1130   1.404       .  A
C1129      C1134   1.399       .  A
C1129      H1136   1.084       .  S
C1130      C1131   1.407   1_455  A
C1131      C1132   1.398       .  A
C1131     Br1138   1.920       .  S
C1132      C1133   1.406       .  A
C1132      H1137   1.084       .  S
C1133      C1134   1.405   1_655  A
C1134     Br1135   1.918       .  S
C1139      C1140   1.404       .  A
C1139      C1144   1.400       .  A
C1139      H1146   1.084   1_554  S
C1140      C1141   1.411       .  A
C1141      C1142   1.396       .  A
C1141     Br1148   1.920       .  S
C1142      C1143   1.399       .  A
C1142      H1147   1.084       .  S
C1143      C1144   1.407       .  A
C1144     Br1145   1.919   1_554  S
C1149      C1150   1.403       .  A
C1149      C1154   1.393       .  A
C1149      H1156   1.084       .  S
C1150      C1151   1.416       .  A
C1151      C1152   1.405       .  A
C1151     Br1158   1.920   1_554  S
C1152      C1153   1.404       .  A
C1153      C1154   1.412       .  A
C1154     Br1155   1.923       .  S
C1159      C1160   1.410       .  A
C1159      C1164   1.406       .  A
C1159      H1166   1.083       .  S
C1160      C1161   1.414       .  A
C1161      C1162   1.406   1_554  A
C1161     Br1168   1.921   1_554  S
C1162      C1163   1.411   1_556  A
C1162      H1583   1.083       .  S
C1163      C1418   1.504   1_554  S
C1163      C1164   1.417       .  A
C1164     Br1165   1.921       .  S
H1167      C1578   1.083       .  S
C1169      C1170   1.403       .  A
C1169      C1174   1.395       .  A
C1169      H1176   1.084       .  S
C1170      C1171   1.410       .  A
C1171      C1172   1.404       .  A
C1171     Br1178   1.917       .  S
C1172      C1173   1.406       .  A
C1172      H1177   1.083       .  S
C1173      C1174   1.409       .  A
C1174     Br1175   1.922       .  S
C1179      C1180   1.406       .  A
C1179      C1184   1.390       .  A
C1179      H1186   1.084       .  S
C1180      C1181   1.405       .  A
C1181      C1182   1.408       .  A
C1181     Br1188   1.916       .  S
C1182      C1183   1.413       .  A
C1182      H1187   1.083       .  S
C1183      C1184   1.407       .  A
C1184     Br1185   1.922       .  S
C1189      C1190   1.406       .  A
C1189      C1194   1.401       .  A
C1189      H1196   1.083       .  S
C1190      C1191   1.417       .  A
C1191      C1192   1.382       .  A
C1191     Br1198   1.922       .  S
C1192      C1193   1.392       .  A
C1192      H1197   1.084       .  S
C1193      C1194   1.406       .  A
C1194     Br1195   1.917       .  S
C1199      C1200   1.404       .  A
C1199      C1204   1.393       .  A
C1199      H1206   1.084       .  S
C1200      C1201   1.405       .  A
C1201      C1202   1.402       .  A
C1201     Br1208   1.918       .  S
C1202      C1203   1.407       .  A
C1202      H1207   1.084       .  S
C1203      C1204   1.405       .  A
C1204     Br1205   1.922       .  S
C1209      C1210   1.408       .  A
C1209      C1214   1.414       .  A
C1209      H1216   1.083       .  S
C1210      C1211   1.423       .  A
C1211      C1212   1.410       .  A
C1211     Br1218   1.923       .  S
C1212      C1213   1.408       .  A
C1212      H1217   1.083       .  S
C1213      C1214   1.425       .  A
C1214     Br1215   1.920       .  S
C1219      C1220   1.405       .  A
C1219      C1224   1.401       .  A
C1219      H1226   1.084       .  S
C1220      C1221   1.408       .  A
C1221      C1222   1.400       .  A
C1221     Br1228   1.918       .  S
C1222      C1223   1.402       .  A
C1222      H1227   1.084       .  S
C1223      C1224   1.407       .  A
C1224     Br1225   1.920       .  S
C1229      C1230   1.400       .  A
C1229      C1234   1.397       .  A
C1229      H1236   1.082       .  S
C1230      C1231   1.411       .  A
C1231      C1232   1.404       .  A
C1231     Br1238   1.919       .  S
C1232      C1233   1.405       .  A
C1232      H1237   1.084       .  S
C1233      C1234   1.410       .  A
C1234     Br1235   1.920       .  S
C1239      C1240   1.395       .  A
C1239      C1244   1.394       .  A
C1239      H1246   1.085       .  S
C1240      C1241   1.406       .  A
C1241      C1242   1.402       .  A
C1241     Br1248   1.914       .  S
C1242      C1243   1.405       .  A
C1242      H1247   1.083       .  S
C1243      C1244   1.417       .  A
C1244     Br1245   1.917       .  S
O1249      C1264   1.259       .  A
O1249     Al1257   1.911       .  S
C1250      O1260   1.261       .  A
C1250      O1251   1.258       .  A
C1250      C1646   1.476       .  S
O1251     Al1253   1.918       .  S
O1252      C1254   1.259       .  A
O1252     Al1253   1.859       .  S
Al1253     O1261   1.882       .  S
Al1253     O1263   1.877       .  S
Al1253     O1262   1.796       .  S
C1254      O1267   1.271       .  A
C1254      C1616   1.466       .  S
O1255      C1265   1.255       .  A
O1255     Al1257   1.909       .  S
O1256      C1269   1.267       .  A
O1256     Al1266   1.922       .  S
Al1257     O1270   1.958       .  S
Al1257     O1267   1.944       .  S
Al1257     O1262   1.794       .  S
O1258      C1265   1.250       .  A
O1258     Al1266   1.866       .  S
O1259      C1268   1.262       .  A
O1259     Al1266   1.900       .  S
O1260     Al1266   1.910       .  S
O1261      C1268   1.258       .  A
O1262     Al1266   1.782       .  S
O1263      C1264   1.252       .  A
C1264      C1636   1.470       .  S
C1265      C1656   1.462       .  S
C1268      C1609   1.456       .  S
C1269      O1270   1.276       .  A
C1269      C1629   1.519       .  S
O1271     Al1279   1.929       .  S
C1272      O1282   1.258       .  A
C1272      O1273   1.259       .  A
C1272      C1586   1.477       .  S
O1273     Al1275   1.922       .  S
O1274      C1276   1.262       .  A
O1274     Al1275   1.880       .  S
Al1275     O1283   1.898       .  S
Al1275     O1285   1.872       .  S
Al1275     O1284   1.783       .  S
C1276      O1289   1.268       .  A
C1276      C1566   1.481       .  S
O1277      C1287   1.260       .  A
O1277     Al1279   1.914       .  S
O1278      C1291   1.266       .  A
O1278     Al1288   1.900       .  S
Al1279     O1292   1.951       .  S
Al1279     O1289   1.938       .  S
Al1279     O1284   1.786       .  S
O1280      C1287   1.256       .  A
O1280     Al1288   1.894       .  S
O1281      C1290   1.264       .  A
O1281     Al1288   1.920       .  S
O1282     Al1288   1.892       .  S
O1283      C1290   1.261       .  A
O1284     Al1288   1.780       .  S
C1286      C1596   1.477       .  S
C1287      C1659   1.480       .  S
C1290      C1556   1.473       .  S
C1291      O1292   1.273       .  A
C1291      C1576   1.502       .  S
O1293      C1308   1.262       .  A
O1293     Al1301   1.910       .  S
C1294      O1304   1.257       .  A
C1294      O1295   1.257       .  A
C1294      C1599   1.480       .  S
O1295     Al1297   1.914       .  S
O1296      C1298   1.261       .  A
O1296     Al1297   1.888       .  S
Al1297     O1305   1.904       .  S
Al1297     O1307   1.891       .  S
Al1297     O1306   1.787       .  S
C1298      O1311   1.266       .  A
C1298      C1526   1.472       .  S
O1299      C1309   1.256       .  A
O1299     Al1301   1.893       .  S
O1300      C1313   1.264       .  A
O1300     Al1310   1.912       .  S
Al1301     O1314   1.938       .  S
Al1301     O1311   1.934       .  S
Al1301     O1306   1.793       .  S
O1302      C1309   1.260       .  A
O1302     Al1310   1.901       .  S
O1303      C1312   1.266       .  A
O1303     Al1310   1.924       .  S
O1304     Al1310   1.892       .  S
O1305      C1312   1.264       .  A
O1306     Al1310   1.784       .  S
O1307      C1308   1.258       .  A
C1308      C1589   1.476       .  S
C1309      C1546   1.470       .  S
C1312      C1516   1.478       .  S
C1313      O1314   1.267       .  A
C1313      C1536   1.510       .  S
O1315      C1330   1.259       .  A
C1316      O1326   1.260       .  A
C1316      O1317   1.262       .  A
C1316      C1639   1.469       .  S
O1317     Al1319   1.926       .  S
O1318      C1320   1.261       .  A
O1318     Al1319   1.874       .  S
Al1319     O1327   1.902       .  S
Al1319     O1328   1.790       .  S
C1320      O1333   1.268   1_556  A
C1320      C1496   1.469       .  S
O1321      C1331   1.256       .  A
O1321     Al1323   1.917   1_556  S
O1322      C1335   1.267       .  A
O1322     Al1332   1.905       .  S
Al1323     O1336   1.947       .  S
Al1323     O1333   1.929       .  S
Al1323     O1328   1.795   1_554  S
O1324      C1331   1.248       .  A
O1324     Al1332   1.861       .  S
O1325      C1334   1.256       .  A
O1325     Al1332   1.899       .  S
O1326     Al1332   1.898       .  S
O1327      C1334   1.260       .  A
O1328     Al1332   1.785       .  S
O1329      C1330   1.252       .  A
C1330      C1649   1.476       .  S
C1331      C1549   1.467       .  S
C1334      C1486   1.480       .  S
C1335      O1336   1.274   1_556  A
O1337      C1352   1.271       .  A
O1337     Al1345   1.929       .  S
C1338      O1348   1.258       .  A
C1338      O1339   1.261       .  A
C1338      C1456   1.498       .  S
O1339     Al1341   1.924       .  S
O1340      C1342   1.254       .  A
O1340     Al1341   1.878       .  S
Al1341     O1349   1.874       .  S
Al1341     O1351   1.935       .  S
Al1341     O1350   1.770       .  S
C1342      O1355   1.264       .  A
C1342      C1479   1.475       .  S
O1343      C1353   1.265       .  A
O1343     Al1345   1.904       .  S
O1344     Al1354   1.903       .  S
Al1345     O1358   1.934       .  S
Al1345     O1355   1.939       .  S
Al1345     O1350   1.788       .  S
O1346      C1353   1.264       .  A
O1346     Al1354   1.916       .  S
O1347      C1356   1.266       .  A
O1347     Al1354   1.936       .  S
O1348     Al1354   1.904       .  S
O1349      C1356   1.257       .  A
O1350     Al1354   1.783       .  S
O1351      C1352   1.270       .  A
C1352      C1509   1.508       .  S
C1353      C1559   1.463       .  S
C1357      C1466   1.493       .  S
O1359      C1374   1.268       .  A
O1359     Al1367   1.929       .  S
C1360      O1370   1.257       .  A
C1360      O1361   1.266       .  A
C1360      C1449   1.481       .  S
O1361     Al1363   1.940       .  S
O1362      C1364   1.254       .  A
O1362     Al1363   1.877       .  S
Al1363     O1371   1.887       .  S
Al1363     O1373   1.925       .  S
Al1363     O1372   1.775       .  S
C1364      O1377   1.265       .  A
C1364      C1476   1.486       .  S
O1365      C1375   1.264       .  A
O1365     Al1367   1.915       .  S
O1366      C1379   1.265       .  A
O1366     Al1376   1.899       .  S
Al1367     O1380   1.942       .  S
Al1367     O1377   1.932       .  S
Al1367     O1372   1.784       .  S
O1368      C1375   1.255       .  A
O1368     Al1376   1.888       .  S
O1369      C1378   1.258       .  A
O1369     Al1376   1.914       .  S
O1370     Al1376   1.890       .  S
O1371      C1378   1.258       .  A
O1372     Al1376   1.779       .  S
O1373      C1374   1.268       .  A
C1374      C1539   1.508       .  S
C1375      C1606   1.470       .  S
C1379      O1380   1.270       .  A
C1379      C1439   1.487       .  S
O1381      C1396   1.275       .  A
O1381     Al1389   1.944       .  S
C1382      O1392   1.256       .  A
C1382      O1383   1.263       .  A
C1382      C1469   1.479       .  S
O1383     Al1385   1.920       .  S
O1384      C1386   1.253       .  A
O1384     Al1385   1.874       .  S
Al1385     O1393   1.874       .  S
Al1385     O1395   1.939       .  S
Al1385     O1394   1.777       .  S
C1386      O1399   1.264       .  A
C1386      C1426   1.487       .  S
O1387      C1397   1.267       .  A
O1387     Al1389   1.920       .  S
O1388      C1401   1.257       .  A
O1388     Al1398   1.887       .  S
Al1389     O1402   1.955       .  S
Al1389     O1399   1.946       .  S
Al1389     O1394   1.792       .  S
O1390      C1397   1.266       .  A
O1390     Al1398   1.925       .  S
O1391      C1400   1.264       .  A
O1391     Al1398   1.928       .  S
O1392     Al1398   1.893       .  S
O1393      C1400   1.256       .  A
O1394     Al1398   1.790       .  S
O1395      C1396   1.269       .  A
C1396      C1626   1.516       .  S
C1397      C1519   1.477       .  S
C1400      C1529   1.470       .  S
C1401      O1402   1.268       .  A
C1401      C1459   1.485       .  S
C1404      O1414   1.258       .  A
C1404      O1405   1.265       .  A
C1404      C1436   1.482       .  S
O1405     Al1407   1.938       .  S
O1406      C1408   1.259       .  A
O1406     Al1407   1.892       .  S
Al1407     O1415   1.882       .  S
Al1407     O1417   1.929       .  S
Al1407     O1416   1.780       .  S
C1408      O1421   1.264       .  A
C1408      C1429   1.492       .  S
O1409      C1419   1.262       .  A
O1409     Al1411   1.905   1_556  S
O1410      C1423   1.264       .  A
Al1411     O1421   1.931   1_554  S
Al1411     O1416   1.784   1_554  S
O1412      C1419   1.260   1_554  A
O1412     Al1420   1.897   1_554  S
O1413      C1422   1.262       .  A
O1413     Al1420   1.926       .  S
O1414     Al1420   1.894       .  S
O1415      C1422   1.258       .  A
O1416     Al1420   1.783       .  S
O1417      C1418   1.268       .  A
C1419      C1489   1.461       .  S
C1422      C1499   1.469       .  S
C1423      O1424   1.267       .  A
C1423      C1446   1.486       .  S
C1425      C1426   1.407       .  A
C1425      C1430   1.399       .  A
C1425      H1432   1.084       .  S
C1426      C1427   1.412       .  A
C1427      C1428   1.403       .  A
C1427     Br1434   1.921       .  S
C1428      C1429   1.410       .  A
C1428      H1433   1.083       .  S
C1429      C1430   1.415       .  A
C1430     Br1431   1.923       .  S
C1435      C1436   1.404       .  A
C1435      C1440   1.401       .  A
C1435      H1442   1.081       .  S
C1436      C1437   1.408       .  A
C1437      C1438   1.405       .  A
C1437     Br1444   1.920       .  S
C1438      C1439   1.411       .  A
C1438      H1443   1.084       .  S
C1439      C1440   1.410       .  A
C1440     Br1441   1.920       .  S
C1445      C1446   1.409       .  A
C1445      C1450   1.403       .  A
C1445      H1452   1.082       .  S
C1446      C1447   1.410       .  A
C1447      C1448   1.403       .  A
C1447     Br1454   1.918       .  S
C1448      C1449   1.407       .  A
C1448      H1453   1.084       .  S
C1449      C1450   1.406       .  A
C1450     Br1451   1.919       .  S
C1455      C1456   1.414       .  A
C1455      C1460   1.410       .  A
C1455      H1462   1.083       .  S
C1456      C1457   1.418       .  A
C1457      C1458   1.398       .  A
C1457     Br1464   1.925       .  S
C1458      C1459   1.403       .  A
C1458      H1463   1.084       .  S
C1459      C1460   1.406       .  A
C1460     Br1461   1.916       .  S
C1465      C1466   1.410       .  A
C1465      C1470   1.406       .  A
C1465      H1472   1.083       .  S
C1466      C1467   1.419       .  A
C1467      C1468   1.398       .  A
C1467     Br1474   1.920       .  S
C1468      C1469   1.399       .  A
C1468      H1473   1.084       .  S
C1469      C1470   1.409       .  A
C1470     Br1471   1.918       .  S
C1475      C1476   1.405   1_455  A
C1475      C1480   1.398       .  A
C1475      H1482   1.083       .  S
C1476      C1477   1.419       .  A
C1477      C1478   1.399       .  A
C1477     Br1484   1.923       .  S
C1478      C1479   1.400   1_655  A
C1478      H1483   1.084       .  S
C1479      C1480   1.409       .  A
C1480     Br1481   1.919       .  S
C1485      C1486   1.410   1_554  A
C1485      H1492   1.083       .  S
C1487      C1488   1.388       .  A
C1487     Br1494   1.926       .  S
C1488      C1489   1.394       .  A
C1488      H1493   1.081       .  S
C1489      C1490   1.403   1_556  A
C1495      C1496   1.403   1_554  A
C1495      C1500   1.395       .  A
C1495      H1502   1.084       .  S
C1496      C1497   1.407       .  A
C1497      C1498   1.403       .  A
C1497     Br1504   1.918       .  S
C1498      C1499   1.405       .  A
C1498      H1503   1.084       .  S
C1499      C1500   1.406   1_556  A
C1500     Br1501   1.921       .  S
C1505      C1510   1.409   1_665  A
C1505      H1512   1.083       .  S
C1506      C1507   1.412       .  A
C1507      C1508   1.404   1_655  A
C1507     Br1514   1.921       .  S
C1508      H1513   1.083       .  S
C1515      C1516   1.402       .  A
C1515      H1522   1.084       .  S
C1516      C1517   1.412       .  A
C1517     Br1524   1.920       .  S
C1518      C1519   1.402       .  A
C1518      H1523   1.084       .  S
C1519      C1520   1.409       .  A
C1520     Br1521   1.913       .  S
C1525      C1526   1.405       .  A
C1525      C1530   1.403       .  A
C1525      H1532   1.084       .  S
C1526      C1527   1.407       .  A
C1527      C1528   1.396       .  A
C1527     Br1534   1.919       .  S
C1528      C1529   1.402       .  A
C1528      H1533   1.084       .  S
C1529      C1530   1.408       .  A
C1530     Br1531   1.918       .  S
C1535      C1536   1.413       .  A
C1535      H1542   1.083       .  S
C1536      C1537   1.418       .  A
C1537      C1538   1.404   1_455  A
C1537     Br1544   1.922       .  S
C1538      H1543   1.083       .  S
C1539      C1540   1.417   1_655  A
C1540     Br1541   1.921       .  S
C1545      C1546   1.404       .  A
C1545      C1550   1.399       .  A
C1545      H1552   1.084       .  S
C1546      C1547   1.407   1_455  A
C1547      C1548   1.398       .  A
C1547     Br1554   1.920       .  S
C1548      C1549   1.406       .  A
C1548      H1553   1.084       .  S
C1549      C1550   1.406   1_655  A
C1550     Br1551   1.918       .  S
C1555      C1556   1.404       .  A
C1555      C1560   1.400       .  A
C1555      H1562   1.084       .  S
C1556      C1557   1.412       .  A
C1557      C1558   1.396       .  A
C1557     Br1564   1.920       .  S
C1558      C1559   1.399       .  A
C1558      H1563   1.084       .  S
C1559      C1560   1.407       .  A
C1560     Br1561   1.919       .  S
C1565      C1566   1.403       .  A
C1565      C1570   1.393       .  A
C1565      H1572   1.084       .  S
C1566      C1567   1.416       .  A
C1567      C1568   1.405       .  A
C1567     Br1574   1.920       .  S
C1568      C1569   1.404       .  A
C1569      C1570   1.412       .  A
C1570     Br1571   1.923       .  S
C1575      C1576   1.410       .  A
C1575      C1580   1.406       .  A
C1575      H1582   1.083       .  S
C1576      C1577   1.414       .  A
C1577      C1578   1.406       .  A
C1577     Br1584   1.921       .  S
C1578      C1579   1.411       .  A
C1579      C1580   1.417       .  A
C1580     Br1581   1.921       .  S
C1585      C1586   1.403       .  A
C1585      C1590   1.395       .  A
C1585      H1592   1.084       .  S
C1586      C1587   1.410       .  A
C1587      C1588   1.404       .  A
C1587     Br1594   1.917       .  S
C1588      C1589   1.406       .  A
C1588      H1593   1.083       .  S
C1589      C1590   1.409       .  A
C1590     Br1591   1.922       .  S
C1595      C1596   1.406       .  A
C1595      C1600   1.390       .  A
C1595      H1602   1.084       .  S
C1596      C1597   1.405       .  A
C1597      C1598   1.408       .  A
C1597     Br1604   1.916       .  S
C1598      C1599   1.413       .  A
C1598      H1603   1.083       .  S
C1599      C1600   1.406       .  A
C1600     Br1601   1.922       .  S
C1605      C1606   1.406       .  A
C1605      C1610   1.401       .  A
C1605      H1612   1.083       .  S
C1606      C1607   1.417       .  A
C1607      C1608   1.382       .  A
C1607     Br1614   1.922       .  S
C1608      C1609   1.392       .  A
C1608      H1613   1.084       .  S
C1609      C1610   1.406       .  A
C1610     Br1611   1.917       .  S
C1615      C1616   1.404       .  A
C1615      C1620   1.393       .  A
C1615      H1622   1.084       .  S
C1616      C1617   1.405       .  A
C1617      C1618   1.402       .  A
C1617     Br1624   1.918       .  S
C1618      C1619   1.407       .  A
C1618      H1623   1.084       .  S
C1619      C1620   1.405       .  A
C1620     Br1621   1.922       .  S
C1625      C1626   1.408       .  A
C1625      C1630   1.414       .  A
C1625      H1632   1.083       .  S
C1626      C1627   1.423       .  A
C1627      C1628   1.410       .  A
C1627     Br1634   1.923       .  S
C1628      C1629   1.408       .  A
C1628      H1633   1.083       .  S
C1629      C1630   1.424       .  A
C1630     Br1631   1.920       .  S
C1635      C1636   1.405       .  A
C1635      C1640   1.401       .  A
C1635      H1642   1.084       .  S
C1636      C1637   1.408       .  A
C1637      C1638   1.399       .  A
C1637     Br1644   1.918       .  S
C1638      C1639   1.402       .  A
C1638      H1643   1.084       .  S
C1639      C1640   1.407       .  A
C1640     Br1641   1.920       .  S
C1645      C1646   1.400       .  A
C1645      C1650   1.397       .  A
C1645      H1652   1.082       .  S
C1646      C1647   1.411       .  A
C1647      C1648   1.404       .  A
C1647     Br1654   1.919       .  S
C1648      C1649   1.405       .  A
C1648      H1653   1.084       .  S
C1649      C1650   1.410       .  A
C1650     Br1651   1.920       .  S
C1655      C1656   1.395       .  A
C1655      C1660   1.394       .  A
C1655      H1662   1.085       .  S
C1656      C1657   1.406       .  A
C1657      C1658   1.402       .  A
C1657     Br1664   1.914       .  S
C1658      C1659   1.405       .  A
C1658      H1663   1.083       .  S
C1659      C1660   1.417       .  A
C1660     Br1661   1.918       .  S
