geometry optimzed in LAMMPS
_audit_creation_date              2020-11-30 
_audit_creation_method            'lammps2cif' 
_symmetry_space_group_name_H-M    'P1' 
_symmetry_Int_Tables_number       1 
_symmetry_cell_setting            triclinic 
loop_ 
_symmetry_equiv_pos_as_xyz 
  x,y,z 
_cell_length_a                    43.19412044 
_cell_length_b                    43.57222041430089 
_cell_length_c                    43.53575899205993 
_cell_angle_alpha                 90.33222534925856 
_cell_angle_beta                  89.38015987791886 
_cell_angle_gamma                 90.20483774241787 
loop_ 
_atom_site_label 
_atom_site_type_symbol 
_atom_site_fract_x 
_atom_site_fract_y 
_atom_site_fract_z 
_atom_site_charge 
C1          C  0.13806525  0.71998302  0.34353518     0.85600
C2          C  0.14427163  0.70650897  0.37539356    -0.54600
C3          C  0.14311363  0.72692779  0.39907239     0.08500
C4          C  0.13796759  0.76027101  0.38870646     0.19500
C5          C  0.10807748  0.73812628  0.34674795    -0.55300
C6          C  0.10764747  0.75901219  0.36994710     0.08700
C7          C  0.16404676  0.74448604  0.34090315    -0.54900
C8          C  0.16416007  0.76575092  0.36444732     0.09200
H9          H  0.14879312  0.68241737  0.37927461     0.13700
H10         H  0.13761327  0.77726034  0.40782470    -0.00500
H11         H  0.08855242  0.73470227  0.33154132     0.14000
H12         H  0.18153964  0.74440473  0.32282329     0.13800
C13         C  0.81312169  0.14017901  0.60559146     0.85600
C14         C  0.79603590  0.13805691  0.57494059    -0.54600
C15         C  0.77703687  0.11337301  0.57206736     0.08500
C16         C  0.77406762  0.09388968  0.60141528     0.19500
C17         C  0.78551427  0.14165454  0.62885017    -0.55300
C18         C  0.76529077  0.11711620  0.62726410     0.08700
C19         C  0.82745860  0.10845710  0.61028179    -0.54900
C20         C  0.80734089  0.08439669  0.60812027     0.09200
H21         H  0.79818831  0.15514737  0.55698824     0.13700
H22         H  0.75789347  0.07418929  0.59933155    -0.00500
H23         H  0.78159720  0.16062591  0.64461181     0.14000
H24         H  0.85215166  0.10524269  0.61252099     0.13800
C25         C  0.40249193  0.11073820  0.71398126     0.85600
C26         C  0.39938973  0.08191771  0.73418101    -0.54600
C27         C  0.42182424  0.07895209  0.75541192     0.08500
C28         C  0.44368080  0.10672419  0.75756792     0.19500
C29         C  0.40071955  0.13694773  0.73807895    -0.55300
C30         C  0.42178115  0.13492570  0.76155020     0.08700
C31         C  0.43599601  0.11131724  0.70258181    -0.54900
C32         C  0.45756256  0.10962380  0.72506735     0.09200
H33         H  0.38126278  0.06479790  0.73164664     0.13700
H34         H  0.46105011  0.10389713  0.77588103    -0.00500
H35         H  0.38357849  0.15492093  0.73735121     0.14000
H36         H  0.44217390  0.11234438  0.67838886     0.13800
C37         C  0.15809016  0.61224304  0.75616283     0.85600
C38         C  0.15756775  0.58055460  0.74072116    -0.54600
C39         C  0.13527099  0.57658919  0.71949432     0.08500
C40         C  0.11405580  0.60464960  0.71569893     0.19500
C41         C  0.15808882  0.63615687  0.73070710    -0.55300
C42         C  0.13618786  0.63246759  0.70854433     0.08700
C43         C  0.12515401  0.61415988  0.76985913    -0.54900
C44         C  0.10195694  0.61039148  0.74882091     0.09200
H45         H  0.17269983  0.56187060  0.74716639     0.13700
H46         H  0.09578935  0.60038539  0.69851494    -0.00500
H47         H  0.17366247  0.65570858  0.73145272     0.14000
H48         H  0.12032164  0.61698073  0.79419711     0.13800
C49         C  0.64054315  0.78207853  0.12989717     0.85600
C50         C  0.60995186  0.76377082  0.13092567    -0.54600
C51         C  0.60521583  0.74492964  0.10629654     0.08500
C52         C  0.63278294  0.74392369  0.08346948     0.19500
C53         C  0.66459002  0.75566890  0.12820219    -0.55300
C54         C  0.66082449  0.73576118  0.10379284     0.08700
C55         C  0.64178671  0.79703069  0.09820443    -0.54900
C56         C  0.63789047  0.77752051  0.07406562     0.09200
H57         H  0.59408070  0.76413370  0.15039547     0.13700
H58         H  0.62943219  0.72800071  0.06376825    -0.00500
H59         H  0.68225956  0.75221511  0.14535818     0.14000
H60         H  0.64474830  0.82160455  0.09516920     0.13800
C61         C  0.75696336  0.37455158  0.10283187     0.85600
C62         C  0.77886964  0.37470441  0.07457533    -0.54600
C63         C  0.79932755  0.39857636  0.07334900     0.08500
C64         C  0.79951417  0.41816301  0.10307404     0.19500
C65         C  0.78021301  0.37210914  0.12940407    -0.55300
C66         C  0.80293652  0.39435258  0.12996607     0.08700
C67         C  0.74442207  0.40732852  0.10514382    -0.54900
C68         C  0.76614615  0.43004677  0.10532553     0.09200
H69         H  0.78051979  0.35637140  0.05791139     0.13700
H70         H  0.81715764  0.43672820  0.10272365    -0.00500
H71         H  0.77923947  0.35366125  0.14604592     0.14000
H72         H  0.71980943  0.41219311  0.10602058     0.13800
C73         C  0.13294819  0.72500815  0.60789882     0.85600
C74         C  0.13868713  0.71082977  0.57621575    -0.54600
C75         C  0.13794035  0.73081673  0.55234077     0.08500
C76         C  0.13158585  0.76422305  0.56199034     0.19500
C77         C  0.15656187  0.75175369  0.61046736    -0.55300
C78         C  0.15659513  0.77189924  0.58631511     0.08700
C79         C  0.10244217  0.74276866  0.60514360    -0.54900
C80         C  0.10115172  0.76239944  0.58082809     0.09200
H81         H  0.14155562  0.68629050  0.57281901     0.13700
H82         H  0.13089194  0.78051581  0.54253078    -0.00500
H83         H  0.17149897  0.75511865  0.63008658     0.14000
H84         H  0.08418052  0.74196822  0.62243288     0.13800
C85         C  0.76485360  0.10387926  0.36652126     0.85600
C86         C  0.78961371  0.12919609  0.36799712    -0.54600
C87         C  0.80980258  0.12739690  0.39217770     0.08500
C88         C  0.80327456  0.09855953  0.41243821     0.19500
C89         C  0.78325057  0.07383488  0.36614419    -0.55300
C90         C  0.80350072  0.07117427  0.38975501     0.08700
C91         C  0.74953661  0.10309459  0.39852089    -0.54900
C92         C  0.76941686  0.10068892  0.42226044     0.09200
H93         H  0.79113708  0.14702997  0.35072845     0.13700
H94         H  0.81778843  0.09569201  0.43284576    -0.00500
H95         H  0.77974726  0.05544201  0.34963423     0.14000
H96         H  0.72470314  0.10310736  0.40238566     0.13800
C97         C  0.65076054  0.13954304  0.77084261     0.85600
C98         C  0.65257276  0.10712768  0.78449510    -0.54600
C99         C  0.64737768  0.08380447  0.76409133     0.08500
C100        C  0.64065000  0.09462683  0.73149923     0.19500
C101        C  0.67309745  0.13923783  0.74305066    -0.55300
C102        C  0.66827690  0.11599437  0.72230667     0.08700
C103        C  0.61794455  0.13919869  0.75715603    -0.54900
C104        C  0.61260417  0.11585988  0.73681983     0.09200
H105        H  0.65398264  0.10285834  0.80898114     0.13700
H106        H  0.63637623  0.07557587  0.71510318    -0.00500
H107        H  0.69162542  0.15593882  0.74026709     0.14000
H108        H  0.59990759  0.15523051  0.76392957     0.13800
C109        C  0.16321560  0.39385145  0.75648999     0.85600
C110        C  0.13138896  0.38997042  0.77215335    -0.54600
C111        C  0.10660628  0.39437850  0.75360533     0.08500
C112        C  0.11552191  0.40115318  0.72003115     0.19500
C113        C  0.16128618  0.36994793  0.73019939    -0.55300
C114        C  0.13695738  0.37403502  0.71056516     0.08700
C115        C  0.16214656  0.42500263  0.74026455    -0.54900
C116        C  0.13718636  0.42934120  0.72192574     0.09200
H117        H  0.12864401  0.38579269  0.79655894     0.13700
H118        H  0.09540257  0.40444167  0.70478823    -0.00500
H119        H  0.17658995  0.35045638  0.72769382     0.14000
H120        H  0.18003112  0.44235233  0.74315577     0.13800
C121        C  0.39940792  0.73359914  0.09281791     0.85600
C122        C  0.43063306  0.71751760  0.09719902    -0.54600
C123        C  0.45581700  0.73621847  0.09569757     0.08500
C124        C  0.44797757  0.77011488  0.09158712     0.19500
C125        C  0.39995319  0.75780389  0.11917830    -0.55300
C126        C  0.42562386  0.77702237  0.11916354     0.08700
C127        C  0.40248787  0.75264289  0.06382212    -0.54900
C128        C  0.42744048  0.77144690  0.06253167     0.09200
H129        H  0.43269050  0.69297555  0.10094791     0.13700
H130        H  0.46941930  0.78389707  0.09026930    -0.00500
H131        H  0.38311078  0.75836740  0.13771232     0.14000
H132        H  0.38566432  0.75136371  0.04544067     0.13800
C133        C  0.80034961  0.62368711  0.12275095     0.85600
C134        C  0.81485629  0.62635862  0.09030475    -0.54600
C135        C  0.79508133  0.61951559  0.06679744     0.08500
C136        C  0.76226478  0.61067602  0.07789525     0.19500
C137        C  0.77166817  0.64416737  0.12216591    -0.55300
C138        C  0.75160192  0.63800361  0.09887230     0.08700
C139        C  0.78818285  0.59061418  0.12284910    -0.54900
C140        C  0.76802854  0.58367771  0.10016513     0.09200
H141        H  0.83924822  0.63084231  0.08608331     0.13700
H142        H  0.74639782  0.60515114  0.05886110    -0.00500
H143        H  0.76783953  0.66263511  0.13863569     0.14000
H144        H  0.79492279  0.57373831  0.13977378     0.13800
C145        C  0.39661398  0.73190624  0.88594076     0.85600
C146        C  0.39909014  0.74864200  0.91737110    -0.54600
C147        C  0.42298791  0.76940306  0.91938440     0.08500
C148        C  0.44286946  0.77160505  0.88992451     0.19500
C149        C  0.39597016  0.75793370  0.86190497    -0.55300
C150        C  0.41986446  0.77876876  0.86371268     0.08700
C151        C  0.42913477  0.71796424  0.88300008    -0.54900
C152        C  0.45303577  0.73836336  0.88463613     0.09200
H153        H  0.38501265  0.74325139  0.93733614     0.13700
H154        H  0.46246913  0.78798221  0.89158590    -0.00500
H155        H  0.37807197  0.75957132  0.84467929     0.14000
H156        H  0.43315488  0.69339555  0.88171655     0.13800
C157        C  0.79680998  0.61827707  0.85478816     0.85600
C158        C  0.78354915  0.58534835  0.85632348    -0.54600
C159        C  0.76460912  0.57972667  0.88114284     0.08500
C160        C  0.76042217  0.60790795  0.90251214     0.19500
C161        C  0.76867597  0.63945367  0.85686118    -0.55300
C162        C  0.74968148  0.63449596  0.88156984     0.08700
C163        C  0.81271745  0.62142646  0.88627402    -0.54900
C164        C  0.79360809  0.61647393  0.91108686     0.09200
H165        H  0.78894024  0.56776550  0.83934326     0.13700
H166        H  0.74509308  0.60378743  0.92267388    -0.00500
H167        H  0.76460630  0.65769105  0.84048917     0.14000
H168        H  0.83739768  0.62525868  0.88888681     0.13800
C169        C  0.89670114  0.40372472  0.76588563     0.85600
C170        C  0.89537454  0.43337752  0.74741251    -0.54600
C171        C  0.91874248  0.43696860  0.72651886     0.08500
C172        C  0.94138680  0.40970423  0.72473967     0.19500
C173        C  0.89781563  0.37772736  0.74170966    -0.55300
C174        C  0.92051767  0.38119405  0.71978235     0.08700
C175        C  0.92955719  0.40252219  0.77880343    -0.54900
C176        C  0.95278648  0.40602600  0.75773974     0.09200
H177        H  0.87717917  0.45028846  0.75070130     0.13700
H178        H  0.96018283  0.41223547  0.70731855    -0.00500
H179        H  0.88355890  0.35723695  0.74259013     0.14000
H180        H  0.93424817  0.39950370  0.80295023     0.13800
C181        C  0.63524472  0.87579991  0.77145142     0.85600
C182        C  0.60440217  0.87470261  0.75420076    -0.54600
C183        C  0.59965499  0.89876595  0.73484907     0.08500
C184        C  0.62771901  0.92100650  0.73254857     0.19500
C185        C  0.65862909  0.87577644  0.74470024    -0.55300
C186        C  0.65555956  0.89974912  0.72491153     0.08700
C187        C  0.63719389  0.90786224  0.78559196    -0.54900
C188        C  0.63344175  0.93137222  0.76574988     0.09200
H189        H  0.58791598  0.85596150  0.75662930     0.13700
H190        H  0.62474605  0.94022236  0.71627163    -0.00500
H191        H  0.67540390  0.85778470  0.74042907     0.14000
H192        H  0.64016366  0.91162839  0.80999501     0.13800
C193        C  0.81458203  0.86836875  0.39275005     0.85600
C194        C  0.79686899  0.86893821  0.42369906    -0.54600
C195        C  0.77747199  0.89344257  0.42759516     0.08500
C196        C  0.77812751  0.91614684  0.40039250     0.19500
C197        C  0.78939393  0.87149729  0.36824534    -0.55300
C198        C  0.77043956  0.89664857  0.37132676     0.08700
C199        C  0.83119752  0.89965001  0.39351335    -0.54900
C200        C  0.81228725  0.92432511  0.39699655     0.09200
H201        H  0.80055872  0.85267709  0.44201403     0.13700
H202        H  0.76420134  0.93710402  0.40387136    -0.00500
H203        H  0.78728432  0.85523845  0.34937328     0.14000
H204        H  0.85614885  0.90229947  0.39232032     0.13800
C205        C  0.89634031  0.78136362  0.59714838     0.85600
C206        C  0.92955597  0.79440130  0.59858586    -0.54600
C207        C  0.95271682  0.77354575  0.59389017     0.08500
C208        C  0.94060989  0.74091494  0.58724420     0.19500
C209        C  0.89623987  0.76659018  0.56476936    -0.55300
C210        C  0.91891028  0.74524879  0.55972770     0.08700
C211        C  0.89582983  0.75416656  0.61948225    -0.54900
C212        C  0.91860309  0.73288812  0.61450770     0.09200
H213        H  0.93448616  0.81882605  0.59970607     0.13700
H214        H  0.95919655  0.72378493  0.58318217    -0.00500
H215        H  0.88006063  0.77278414  0.54697709     0.14000
H216        H  0.87871517  0.75190317  0.63779660     0.13800
C217        C  0.64056732  0.77926276  0.86634796     0.85600
C218        C  0.64481910  0.79227698  0.89850829    -0.54600
C219        C  0.63973272  0.77230834  0.92170488     0.08500
C220        C  0.63169596  0.73955677  0.91084784     0.19500
C221        C  0.66262228  0.75145712  0.86469539    -0.55300
C222        C  0.65846777  0.73090251  0.88827915     0.08700
C223        C  0.60882940  0.76340182  0.86620554    -0.54900
C224        C  0.60357360  0.74350856  0.88960824     0.09200
H225        H  0.64948136  0.81642449  0.90268712     0.13700
H226        H  0.62790190  0.72296004  0.92976589    -0.00500
H227        H  0.67890550  0.74703516  0.84613542     0.14000
H228        H  0.59196262  0.76719704  0.84827162     0.13800
C229        C  0.80394325  0.39750047  0.86797407     0.85600
C230        C  0.81926114  0.39674780  0.89953003    -0.54600
C231        C  0.79975784  0.40137627  0.92383760     0.08500
C232        C  0.76583510  0.40529357  0.91484880     0.19500
C233        C  0.77930213  0.37170095  0.87156913    -0.55300
C234        C  0.75897880  0.37535656  0.89615420     0.08700
C235        C  0.78534211  0.42689085  0.86692265    -0.54900
C236        C  0.76593720  0.43172085  0.89091701     0.09200
H237        H  0.84387099  0.39343215  0.90244536     0.13700
H238        H  0.75105839  0.40938531  0.93532966    -0.00500
H239        H  0.77911341  0.35116518  0.85747289     0.14000
H240        H  0.78770027  0.44313719  0.84814301     0.13800
C241        C  0.88835990  0.62017687  0.75438642     0.85600
C242        C  0.92095924  0.62111841  0.76845460    -0.54600
C243        C  0.94466118  0.61562708  0.74810652     0.08500
C244        C  0.93389566  0.60910351  0.71529423     0.19500
C245        C  0.88988618  0.64244035  0.72715521    -0.55300
C246        C  0.91350499  0.63701498  0.70663608     0.08700
C247        C  0.88762118  0.58782885  0.73990394    -0.54900
C248        C  0.91115625  0.58201646  0.71957653     0.09200
H249        H  0.92504386  0.62382337  0.79288248     0.13700
H250        H  0.95312636  0.60449847  0.69880813    -0.00500
H251        H  0.87378471  0.66131462  0.72456994     0.14000
H252        H  0.87057540  0.57046243  0.74596577     0.13800
C253        C  0.39232454  0.89564145  0.72426454     0.85600
C254        C  0.42416478  0.89117014  0.70859547    -0.54600
C255        C  0.44921644  0.89519986  0.72693941     0.08500
C256        C  0.44040178  0.90218373  0.76060504     0.19500
C257        C  0.39373229  0.87176500  0.75048778    -0.55300
C258        C  0.41821108  0.87534310  0.77014533     0.08700
C259        C  0.39428713  0.92686220  0.74063014    -0.54900
C260        C  0.41958691  0.93096266  0.75861209     0.09200
H261        H  0.42674269  0.88695514  0.68423653     0.13700
H262        H  0.46073137  0.90516967  0.77558220    -0.00500
H263        H  0.37859233  0.85203279  0.75236048     0.14000
H264        H  0.37719607  0.94477753  0.73742881     0.13800
C265        C  0.75505952  0.90303655  0.63262954     0.85600
C266        C  0.74244391  0.90248863  0.59976043    -0.54600
C267        C  0.76443724  0.90342960  0.57713110     0.08500
C268        C  0.79751321  0.90575028  0.58893558     0.19500
C269        C  0.77889594  0.87689557  0.63351031    -0.55300
C270        C  0.80098610  0.87793737  0.61073797     0.08700
C271        C  0.77405019  0.93300346  0.63239253    -0.54900
C272        C  0.79606150  0.93446962  0.60983385     0.09200
H273        H  0.71797928  0.90231689  0.59450581     0.13700
H274        H  0.81532282  0.90686136  0.57042223    -0.00500
H275        H  0.77796173  0.85867403  0.65041397     0.14000
H276        H  0.76877176  0.95279730  0.64669662     0.13800
O277        O  0.94315842  0.65094432  0.51952719    -0.73800
O278        O  0.95104576  0.71492107  0.45553096    -0.74800
O279        O  0.94631201  0.71512466  0.52232688    -0.63400
O280        O  0.94797309  0.65094803  0.45533275    -0.71800
O281        O  0.89700141  0.65350111  0.45309333    -0.71400
O282        O  0.89533802  0.71921298  0.51793837    -0.62600
O283        O  0.89967631  0.71657760  0.45257122    -0.75100
O284        O  0.89221076  0.65542136  0.51875209    -0.73900
Cu285      Cu  0.94895962  0.68323757  0.48839414     1.04600
Cu286      Cu  0.89431587  0.68643389  0.48558284     1.04300
C287        C  0.91648744  0.64335183  0.52973134     0.92400
C288        C  0.92641159  0.72270010  0.44173379     0.91500
C289        C  0.92042853  0.72613937  0.53162530     0.83700
C290        C  0.92256952  0.64214892  0.44336890     0.89900
O291        O  0.88925618  0.53696610  0.63226061    -0.73800
O292        O  0.89307802  0.47328896  0.69642060    -0.74800
O293        O  0.88885298  0.53848224  0.69549132    -0.63400
O294        O  0.89412446  0.47180694  0.63237453    -0.71800
O295        O  0.94525133  0.47524906  0.63186746    -0.71400
O296        O  0.94011302  0.54266640  0.69417387    -0.62600
O297        O  0.94446976  0.47535275  0.69629927    -0.75100
O298        O  0.94028528  0.53884272  0.63043700    -0.73900
Cu299      Cu  0.88959377  0.50486168  0.66425593     1.04600
Cu300      Cu  0.94437897  0.50807307  0.66347751     1.04300
C301        C  0.91412134  0.54876499  0.62167059     0.92400
C302        C  0.91905023  0.46327392  0.70559914     0.91500
C303        C  0.91361824  0.55269640  0.70277954     0.83700
C304        C  0.92043898  0.46311478  0.62189254     0.89900
O305        O  0.75279160  0.07533083  0.46819802    -0.73800
O306        O  0.68806502  0.07537111  0.53596504    -0.74800
O307        O  0.68819512  0.06814220  0.47120255    -0.63400
O308        O  0.75220538  0.08083776  0.53576930    -0.71800
O309        O  0.74989684  0.13129231  0.52903821    -0.71400
O310        O  0.68278575  0.11873287  0.46855503    -0.62600
O311        O  0.68700899  0.12596887  0.53273124    -0.75100
O312        O  0.74638683  0.12574576  0.46393490    -0.73900
Cu313      Cu  0.72086384  0.07298643  0.50293140     1.04600
Cu314      Cu  0.71658541  0.12704976  0.49837399     1.04300
C315        C  0.75724782  0.10057357  0.45377171     0.92400
C316        C  0.67788560  0.10135001  0.54539153     0.91500
C317        C  0.67505721  0.09166033  0.46007583     0.83700
C318        C  0.75926423  0.10810130  0.54404468     0.89900
O319        O  0.50211503  0.13455449  0.70588119    -0.73800
O320        O  0.57550888  0.13024468  0.65060008    -0.74800
O321        O  0.51137851  0.12963898  0.64253799    -0.63400
O322        O  0.56840708  0.13627018  0.71310282    -0.71800
O323        O  0.57330085  0.08554828  0.71274597    -0.71400
O324        O  0.50649122  0.07948159  0.64871695    -0.62600
O325        O  0.57183837  0.07948398  0.64920941    -0.75100
O326        O  0.50479245  0.08420558  0.71321176    -0.73900
Cu327      Cu  0.53931397  0.13437207  0.67826059     1.04600
Cu328      Cu  0.53911830  0.08025303  0.68158190     1.04300
C329        C  0.49050055  0.10968935  0.71629931     0.92400
C330        C  0.58441885  0.10434989  0.64009928     0.91500
C331        C  0.49910807  0.10414656  0.63481332     0.83700
C332        C  0.58291823  0.11218721  0.72088200     0.89900
O333        O  0.15642992  0.46876940  0.63017045    -0.73800
O334        O  0.15858912  0.53618139  0.69154236    -0.74800
O335        O  0.15913966  0.47048015  0.69384439    -0.63400
O336        O  0.15640846  0.53277777  0.62754086    -0.71800
O337        O  0.10545569  0.53538810  0.63194149    -0.71400
O338        O  0.10783461  0.46762625  0.69505858    -0.62600
O339        O  0.10726365  0.53571729  0.69555740    -0.75100
O340        O  0.10498410  0.47031180  0.63084076    -0.73900
Cu341      Cu  0.15933567  0.50204887  0.66096443     1.04600
Cu342      Cu  0.10446723  0.50216602  0.66374551     1.04300
C343        C  0.13035608  0.45950764  0.62025615     0.92400
C344        C  0.13341442  0.54795372  0.70163351     0.91500
C345        C  0.13430254  0.45737345  0.70307579     0.83700
C346        C  0.13077146  0.54453368  0.61952492     0.89900
O347        O  0.11288732  0.64300027  0.44517607    -0.73800
O348        O  0.11307672  0.71124964  0.50823994    -0.74800
O349        O  0.11549322  0.70787890  0.44202584    -0.63400
O350        O  0.11019432  0.64729103  0.51102028    -0.71800
O351        O  0.16107875  0.64399377  0.51173918    -0.71400
O352        O  0.16681148  0.70544540  0.44314269    -0.62600
O353        O  0.16435543  0.70825715  0.51010704    -0.75100
O354        O  0.16390528  0.64074652  0.44752527    -0.73900
Cu355      Cu  0.11116772  0.67766149  0.47646864     1.04600
Cu356      Cu  0.16581317  0.67491294  0.47809682     1.04300
C357        C  0.13849608  0.63085407  0.43652538     0.92400
C358        C  0.13867454  0.71816069  0.52098675     0.91500
C359        C  0.14192620  0.71469256  0.43054547     0.83700
C360        C  0.13467906  0.63606594  0.52257378     0.89900
O361        O  0.55978505  0.87438883  0.70689309    -0.73800
O362        O  0.49953615  0.87192833  0.63859172    -0.74800
O363        O  0.56452759  0.87596046  0.64286016    -0.63400
O364        O  0.49295568  0.87146334  0.70285946    -0.71800
O365        O  0.49277690  0.92228901  0.70633554    -0.71400
O366        O  0.55998322  0.92663042  0.64168457    -0.62600
O367        O  0.49425491  0.92247184  0.64095156    -0.75100
O368        O  0.56094278  0.92528996  0.70591971    -0.73900
Cu369      Cu  0.52929154  0.87173645  0.67304451     1.04600
Cu370      Cu  0.52686076  0.92602231  0.67404403     1.04300
C371        C  0.57192624  0.89979463  0.71526349     0.92400
C372        C  0.48695938  0.89646895  0.62913357     0.91500
C373        C  0.57312458  0.90204586  0.63243333     0.83700
C374        C  0.48060845  0.89628539  0.71281990     0.89900
O375        O  0.74739533  0.87250949  0.46842521    -0.73800
O376        O  0.68262618  0.87892620  0.53428184    -0.74800
O377        O  0.68210781  0.87378327  0.47024991    -0.63400
O378        O  0.74683014  0.87689214  0.53399061    -0.71800
O379        O  0.74773157  0.92786641  0.53182990    -0.71400
O380        O  0.68392913  0.92440768  0.46574478    -0.62600
O381        O  0.68268776  0.92965264  0.53020690    -0.75100
O382        O  0.74905339  0.92327461  0.46465091    -0.73900
Cu383      Cu  0.71502662  0.87385813  0.50173758     1.04600
Cu384      Cu  0.71630262  0.92817276  0.49791129     1.04300
C385        C  0.75737320  0.89671892  0.45511354     0.92400
C386        C  0.67184469  0.90510046  0.54213570     0.91500
C387        C  0.67235085  0.89845007  0.45819318     0.83700
C388        C  0.75468362  0.90277625  0.54515190     0.89900
O389        O  0.74877578  0.47563179  0.12975332    -0.73800
O390        O  0.68038629  0.53783643  0.12989689    -0.74800
O391        O  0.68509903  0.47245369  0.13192452    -0.63400
O392        O  0.74486900  0.54206283  0.12660483    -0.71800
O393        O  0.74270476  0.54114850  0.07568159    -0.71400
O394        O  0.68230591  0.47123651  0.08140912    -0.62600
O395        O  0.67846203  0.53545533  0.07908896    -0.75100
O396        O  0.74695708  0.47342105  0.07883213    -0.73900
Cu397      Cu  0.71509580  0.50721359  0.13126961     1.04600
Cu398      Cu  0.71293604  0.50528495  0.07696456     1.04300
C399        C  0.75567512  0.46226770  0.10446323     0.92400
C400        C  0.66882180  0.54667220  0.10455934     0.91500
C401        C  0.67428801  0.46048795  0.10748709     0.83700
C402        C  0.75141137  0.55402131  0.10055887     0.89900
O403        O  0.56580766  0.65056701  0.07743948    -0.73800
O404        O  0.50235857  0.71714881  0.07376435    -0.74800
O405        O  0.56937599  0.71476883  0.07774932    -0.63400
O406        O  0.50039349  0.65332822  0.07366267    -0.71800
O407        O  0.50007610  0.64920987  0.12419397    -0.71400
O408        O  0.56273438  0.71743791  0.12831798    -0.62600
O409        O  0.49585946  0.71347017  0.12432051    -0.75100
O410        O  0.56537538  0.65321681  0.12830422    -0.73900
Cu411      Cu  0.53471719  0.68417304  0.07390910     1.04600
Cu412      Cu  0.53094738  0.68362331  0.12812648     1.04300
C413        C  0.57596880  0.64170262  0.10333485     0.92400
C414        C  0.48696526  0.72316843  0.09824004     0.91500
C415        C  0.57759311  0.72505725  0.10393418     0.83700
C416        C  0.48954089  0.64107082  0.09806865     0.89900
O417        O  0.49785733  0.71881829  0.86077308    -0.73800
O418        O  0.56157419  0.65311468  0.86213406    -0.74800
O419        O  0.49591062  0.65562047  0.85961729    -0.63400
O420        O  0.56383337  0.71686678  0.86397154    -0.71800
O421        O  0.56316015  0.71495743  0.91492332    -0.71400
O422        O  0.49323795  0.65328484  0.91013748    -0.62600
O423        O  0.55858503  0.65073865  0.91291314    -0.75100
O424        O  0.49533676  0.71788060  0.91178720    -0.73900
Cu425      Cu  0.53000663  0.68632014  0.85998690     1.04600
Cu426      Cu  0.52753179  0.68449671  0.91433951     1.04300
C427        C  0.48463998  0.72644916  0.88593100     0.92400
C428        C  0.57026021  0.64152766  0.88745651     0.91500
C429        C  0.48343442  0.64469648  0.88384675     0.83700
C430        C  0.57539349  0.72437478  0.88981640     0.89900
O431        O  0.74060960  0.53555700  0.86026119    -0.73800
O432        O  0.67318867  0.47356007  0.86155474    -0.74800
O433        O  0.67642036  0.53828316  0.86027587    -0.63400
O434        O  0.73752624  0.46972786  0.86459499    -0.71800
O435        O  0.73785922  0.47259577  0.91549943    -0.71400
O436        O  0.67310882  0.53754445  0.91110348    -0.62600
O437        O  0.67321170  0.47269195  0.91245686    -0.75100
O438        O  0.73771610  0.54087039  0.91091094    -0.73900
Cu439      Cu  0.70722998  0.50411208  0.85998115     1.04600
Cu440      Cu  0.70573663  0.50599296  0.91438419     1.04300
C441        C  0.74745870  0.55029708  0.88461560     0.92400
C442        C  0.66279919  0.46284442  0.88677048     0.91500
C443        C  0.66483022  0.54850482  0.88544067     0.83700
C444        C  0.74613413  0.45930028  0.89060934     0.89900
C445        C  0.64865043  0.13634471  0.22822629     0.85600
C446        C  0.61740020  0.13508405  0.24538200    -0.54600
C447        C  0.61394995  0.11053596  0.26437836     0.08500
C448        C  0.64197636  0.08885539  0.26459590     0.19500
C449        C  0.67332888  0.13424782  0.25286069    -0.55300
C450        C  0.67028633  0.10962586  0.27175540     0.08700
C451        C  0.64917917  0.10506999  0.21165060    -0.54900
C452        C  0.64579264  0.08039043  0.23064596     0.09200
H453        H  0.59888088  0.15144681  0.24198411     0.13700
H454        H  0.63928352  0.06884944  0.28007703    -0.00500
H455        H  0.69192887  0.15094387  0.25515595     0.14000
H456        H  0.65023420  0.10255650  0.18683202     0.13800
C457        C  0.67430314  0.90188777  0.27570473     0.85600
C458        C  0.64170091  0.89600864  0.28897456    -0.54600
C459        C  0.61822162  0.89800755  0.26854100     0.08500
C460        C  0.62953188  0.90334074  0.23532072     0.19500
C461        C  0.67636325  0.87627568  0.25077588    -0.55300
C462        C  0.65316864  0.87681919  0.22906175     0.08700
C463        C  0.67223863  0.93197867  0.25780895    -0.54900
C464        C  0.64903252  0.93298534  0.23706182     0.09200
H465        H  0.63724758  0.89052138  0.31284486     0.13700
H466        H  0.61069841  0.90504650  0.21830757    -0.00500
H467        H  0.69369372  0.85834895  0.25134198     0.14000
H468        H  0.68785855  0.95120632  0.26158516     0.13800
O469        O  0.65724221  0.04398798  0.84758613    -0.73800
O470        O  0.65944872  0.97252505  0.78988245    -0.74800
O471        O  0.66514980  0.03788510  0.78485923    -0.63400
O472        O  0.65436041  0.97973896  0.85334502    -0.71800
O473        O  0.60386758  0.97639112  0.84637194    -0.71400
O474        O  0.61418142  0.04435845  0.78311476    -0.62600
O475        O  0.60910587  0.97760737  0.78154319    -0.75100
O476        O  0.60600333  0.04262870  0.84752786    -0.73900
Cu477      Cu  0.66067329  0.00843373  0.81878305     1.04600
Cu478      Cu  0.60630085  0.01040380  0.81415995     1.04300
C479        C  0.63125021  0.05391795  0.85766170     0.92400
C480        C  0.63433236  0.96286602  0.77788050     0.91500
C481        C  0.64177812  0.05290851  0.77602585     0.83700
C482        C  0.62845367  0.96731137  0.85985379     0.89900
O483        O  0.60536492  0.85898029  0.02770749    -0.73800
O484        O  0.61133322  0.79185916  0.96407487    -0.74800
O485        O  0.61047275  0.79488780  0.03041815    -0.63400
O486        O  0.60653108  0.85682492  0.96155881    -0.71800
O487        O  0.65743243  0.86140529  0.96181369    -0.71400
O488        O  0.66156128  0.80074234  0.03064920    -0.62600
O489        O  0.66254550  0.79679000  0.96421533    -0.75100
O490        O  0.65611038  0.86447580  0.02588017    -0.73900
Cu491      Cu  0.60663940  0.82526835  0.99584900     1.04600
Cu492      Cu  0.66115030  0.83062897  0.99558903     1.04300
C493        C  0.62996273  0.87201453  0.03737016     0.92400
C494        C  0.63791177  0.78540435  0.95275732     0.91500
C495        C  0.63670345  0.79011019  0.04275599     0.83700
C496        C  0.63130729  0.86942471  0.95113100     0.89900
C497        C  0.64745611  0.23232004  0.87017038     0.85600
C498        C  0.61483300  0.24619434  0.87010550    -0.54600
C499        C  0.60845738  0.26621786  0.89349214     0.08500
C500        C  0.63573721  0.26989782  0.91645015     0.19500
C501        C  0.66966721  0.25985088  0.87232708    -0.55300
C502        C  0.66481737  0.27921289  0.89691358     0.08700
C503        C  0.64824297  0.21733030  0.90212762    -0.54900
C504        C  0.64278184  0.23696150  0.92618837     0.09200
H505        H  0.59763274  0.24020425  0.85306893     0.13700
H506        H  0.63061447  0.28484144  0.93649743    -0.00500
H507        H  0.68894391  0.26278608  0.85637079     0.14000
H508        H  0.65049715  0.19281019  0.90561359     0.13800
O509        O  0.60633084  0.15565832  0.96711718    -0.73800
O510        O  0.61169502  0.21850560  0.03594586    -0.74800
O511        O  0.61336107  0.21975451  0.96891921    -0.63400
O512        O  0.60368267  0.15411660  0.03275792    -0.71800
O513        O  0.65460924  0.14796454  0.03300520    -0.71400
O514        O  0.66451979  0.21471625  0.97043723    -0.62600
O515        O  0.66260004  0.21146994  0.03701395    -0.75100
O516        O  0.65725397  0.15234111  0.96778025    -0.73900
Cu517      Cu  0.60695428  0.18754706  0.00124241     1.04600
Cu518      Cu  0.66144751  0.18172321  0.00220572     1.04300
C519        C  0.63152004  0.14448756  0.95613984     0.92400
C520        C  0.63794412  0.22278881  0.04866341     0.91500
C521        C  0.64022765  0.22491448  0.95756060     0.83700
C522        C  0.62761866  0.14048125  0.04280827     0.89900
O523        O  0.60223435  0.03657952  0.15098415    -0.73800
O524        O  0.61663314  0.97034710  0.21371163    -0.74800
O525        O  0.61565077  0.03759554  0.21447867    -0.63400
O526        O  0.60448598  0.97108252  0.15047348    -0.71800
O527        O  0.65476212  0.97492516  0.14072145    -0.71400
O528        O  0.66625139  0.03813638  0.20440158    -0.62600
O529        O  0.66715640  0.97259372  0.20398009    -0.75100
O530        O  0.65295641  0.03861613  0.14233644    -0.73900
Cu531      Cu  0.60786642  0.00385346  0.18312276     1.04600
Cu532      Cu  0.66191303  0.00601820  0.17277628     1.04300
C533        C  0.62556355  0.04760327  0.13644601     0.92400
C534        C  0.64399308  0.96007537  0.21753012     0.91500
C535        C  0.64253405  0.04971303  0.21742099     0.83700
C536        C  0.62856414  0.96271130  0.13532575     0.89900
C537        C  0.64244396  0.23176825  0.13569674     0.85600
C538        C  0.64459616  0.21653915  0.10385356    -0.54600
C539        C  0.63950316  0.23572529  0.07985825     0.08500
C540        C  0.63221844  0.26889182  0.08970064     0.19500
C541        C  0.66450813  0.25920814  0.13429429    -0.55300
C542        C  0.65960884  0.27884941  0.11058194     0.08700
C543        C  0.60952684  0.24545300  0.13545862    -0.54900
C544        C  0.60427195  0.26508052  0.11170246     0.09200
H545        H  0.64788943  0.19205762  0.10043982     0.13700
H546        H  0.62792012  0.28467855  0.07029541    -0.00500
H547        H  0.68301612  0.26258622  0.15069934     0.14000
H548        H  0.59164675  0.23986031  0.15222490     0.13800
O549        O  0.46166611  0.86093309  0.95740338    -0.73800
O550        O  0.45709493  0.79844205  0.02422766    -0.74800
O551        O  0.45464251  0.79673944  0.95618378    -0.63400
O552        O  0.46113158  0.86328735  0.02231442    -0.71800
O553        O  0.41015823  0.86800026  0.01965018    -0.71400
O554        O  0.40347001  0.79997427  0.95986303    -0.62600
O555        O  0.40604116  0.80404061  0.02503257    -0.75100
O556        O  0.41030762  0.86362179  0.95599774    -0.73900
Cu557      Cu  0.46061485  0.82944027  0.98996908     1.04600
Cu558      Cu  0.40586323  0.83385970  0.99020672     1.04300
C559        C  0.43699908  0.87225220  0.94652623     0.92400
C560        C  0.43067840  0.79248216  0.03618647     0.91500
C561        C  0.42754463  0.78915375  0.94677628     0.83700
C562        C  0.43585927  0.87615901  0.03108978     0.89900
O563        O  0.46302211  0.04118562  0.84031709    -0.73800
O564        O  0.45179367  0.97110668  0.77972845    -0.74800
O565        O  0.45169108  0.03929382  0.77745211    -0.63400
O566        O  0.46404456  0.97642702  0.84237146    -0.71800
O567        O  0.41299070  0.97461970  0.84928740    -0.71400
O568        O  0.40110174  0.03981750  0.78728125    -0.62600
O569        O  0.40092536  0.97374711  0.78693522    -0.75100
O570        O  0.41268153  0.03828578  0.85022111    -0.73900
Cu571      Cu  0.45949149  0.00701494  0.80920512     1.04600
Cu572      Cu  0.40522995  0.00664840  0.81848643     1.04300
C573        C  0.43914000  0.05011944  0.85541831     0.92400
C574        C  0.42455186  0.96014747  0.77558795     0.91500
C575        C  0.42496865  0.05121113  0.77405812     0.83700
C576        C  0.44016415  0.96577371  0.85607348     0.89900
C577        C  0.43287162  0.86834961  0.22062382     0.85600
C578        C  0.46383340  0.87008929  0.23729276    -0.54600
C579        C  0.46626254  0.89312752  0.25839023     0.08500
C580        C  0.43657278  0.91278644  0.26177565     0.19500
C581        C  0.40800554  0.86650741  0.24648129    -0.55300
C582        C  0.40990908  0.88931552  0.26838294     0.08700
C583        C  0.42725091  0.90080040  0.20816997    -0.54900
C584        C  0.43027175  0.92408387  0.22892974     0.09200
H585        H  0.48251878  0.85400900  0.23268801     0.13700
H586        H  0.43833342  0.93153976  0.27903202    -0.00500
H587        H  0.38917330  0.84999560  0.24661411     0.09200
H588        H  0.42255978  0.90531286  0.18427013     0.13800
O589        O  0.40891820  0.96921351  0.20699502    -0.73800
O590        O  0.41942206  0.03768129  0.14618508    -0.74800
O591        O  0.41333874  0.97418992  0.14255479    -0.63400
O592        O  0.41407131  0.03578201  0.21028679    -0.71800
O593        O  0.46537226  0.03369183  0.21235931    -0.71400
O594        O  0.46404890  0.96782320  0.14604489    -0.62600
O595        O  0.47042668  0.03207995  0.14742155    -0.75100
O596        O  0.45998069  0.96660663  0.21152792    -0.73900
Cu597      Cu  0.41223574  0.00433665  0.17688034     1.04600
Cu598      Cu  0.46678711  0.99986122  0.17991905     1.04300
C599        C  0.43298928  0.95576216  0.21712465     0.92400
C600        C  0.44645074  0.04452781  0.13608971     0.91500
C601        C  0.43830234  0.96178680  0.13294331     0.83700
C602        C  0.43974638  0.04666376  0.21964858     0.89900
O603        O  0.46885193  0.14806146  0.02776651    -0.73800
O604        O  0.45455267  0.21515299  0.96582575    -0.74800
O605        O  0.46003946  0.21211819  0.03288191    -0.63400
O606        O  0.46341149  0.15141714  0.96306671    -0.71800
O607        O  0.41351918  0.14186631  0.97042077    -0.71400
O608        O  0.40889562  0.20652297  0.03518448    -0.62600
O609        O  0.40412797  0.20526615  0.96826450    -0.75100
O610        O  0.41809168  0.14345214  0.03431826    -0.73900
Cu611      Cu  0.46351937  0.18232145  0.99733377     1.04600
Cu612      Cu  0.40941745  0.17443374  0.00223648     1.04300
C613        C  0.44554721  0.13505834  0.04060834     0.92400
C614        C  0.42733160  0.21792651  0.95489937     0.91500
C615        C  0.43405111  0.21699093  0.04630306     0.83700
C616        C  0.43883345  0.13670663  0.95604976     0.89900
C617        C  0.42357076  0.22191653  0.86742179     0.85600
C618        C  0.42107762  0.20867167  0.89981209    -0.54600
C619        C  0.42365957  0.22953259  0.92321529     0.08500
C620        C  0.42874002  0.26278275  0.91204225     0.19500
C621        C  0.39918550  0.24779444  0.86655366    -0.55300
C622        C  0.40129043  0.26928802  0.88971166     0.08700
C623        C  0.45394057  0.24033038  0.86705693    -0.54900
C624        C  0.45771485  0.26041470  0.89081200     0.09200
H625        H  0.41989960  0.18420068  0.90384506     0.13700
H626        H  0.43113783  0.27986738  0.93087677    -0.00500
H627        H  0.38250275  0.24998448  0.84825219     0.14000
H628        H  0.47094328  0.23848702  0.84861858     0.13800
C629        C  0.16386509  0.60026602  0.20189398     0.85600
C630        C  0.13160910  0.60622141  0.18843997    -0.54600
C631        C  0.10769832  0.60344850  0.20878291     0.08500
C632        C  0.11784415  0.59669002  0.24151176     0.19500
C633        C  0.16527568  0.62455609  0.22785272    -0.55300
C634        C  0.14084541  0.62344514  0.24852692     0.08700
C635        C  0.16161986  0.56968055  0.21826924    -0.54900
C636        C  0.13811105  0.56734583  0.23897082     0.09200
H637        H  0.12775644  0.61209450  0.16464917     0.13700
H638        H  0.09753981  0.59463913  0.25704293    -0.00500
H639        H  0.18283013  0.64240375  0.22865578     0.14000
H640        H  0.17818311  0.55131231  0.21425584     0.13800
C641        C  0.89607596  0.61197051  0.21340069     0.85600
C642        C  0.89492551  0.57961965  0.22799453    -0.54600
C643        C  0.91949687  0.57342224  0.24672396     0.08500
C644        C  0.94291728  0.60005233  0.24934754     0.19500
C645        C  0.89934959  0.63418143  0.24014953    -0.55300
C646        C  0.92337584  0.62828207  0.25896461     0.08700
C647        C  0.92788816  0.61185372  0.19713963    -0.54900
C648        C  0.95226683  0.60588532  0.21590797     0.09200
H649        H  0.87680291  0.56292143  0.22352994     0.13700
H650        H  0.96272231  0.59554890  0.26472544    -0.00500
H651        H  0.88380071  0.65344907  0.24392553     0.14000
H652        H  0.93096559  0.61534793  0.17263371     0.13800
O653        O  0.98954927  0.63569745  0.83056111    -0.73800
O654        O  0.05735954  0.63555853  0.76773866    -0.74800
O655        O  0.99028469  0.63777765  0.76754494    -0.63400
O656        O  0.05553535  0.63336024  0.83114041    -0.71800
O657        O  0.05353033  0.58258682  0.83092310    -0.71400
O658        O  0.98756776  0.58688690  0.76606709    -0.62600
O659        O  0.05611014  0.58460380  0.76630627    -0.75100
O660        O  0.98743991  0.58522011  0.83075247    -0.73900
Cu661      Cu  0.02325155  0.63716818  0.79899819     1.04600
Cu662      Cu  0.02107850  0.58291447  0.79802916     1.04300
C663        C  0.97742334  0.61104933  0.84075739     0.92400
C664        C  0.06941152  0.61007906  0.75960579     0.91500
C665        C  0.97654422  0.61319652  0.75936128     0.83700
C666        C  0.06508003  0.60763807  0.84113375     0.89900
O667        O  0.81260159  0.59134634  0.02245145    -0.73800
O668        O  0.87689365  0.58713273  0.95371217    -0.74800
O669        O  0.87726849  0.58708617  0.01871578    -0.63400
O670        O  0.81187132  0.59015621  0.95477147    -0.71800
O671        O  0.81539522  0.64101360  0.95453790    -0.71400
O672        O  0.88019414  0.63786373  0.01917154    -0.62600
O673        O  0.87864770  0.63762420  0.95366031    -0.75100
O674        O  0.81643462  0.64215880  0.02189636    -0.73900
Cu675      Cu  0.84416827  0.58714328  0.98745033     1.04600
Cu676      Cu  0.84743282  0.64136845  0.98735777     1.04300
C677        C  0.80708205  0.61755301  0.03481150     0.92400
C678        C  0.88769122  0.61208292  0.94245642     0.91500
C679        C  0.88894163  0.61185988  0.02920654     0.83700
C680        C  0.80612265  0.61593748  0.94235965     0.89900
C681        C  0.25710318  0.61119058  0.84748881     0.85600
C682        C  0.24119670  0.61208139  0.87904071    -0.54600
C683        C  0.26039825  0.60851310  0.90327715     0.08500
C684        C  0.29453819  0.60378544  0.89407320     0.19500
C685        C  0.28307985  0.63509981  0.84908919    -0.55300
C686        C  0.30264913  0.63202660  0.87327018     0.08700
C687        C  0.27323704  0.57962410  0.84810046    -0.54900
C688        C  0.29284357  0.57542352  0.87219316     0.09200
H689        H  0.21633237  0.61432261  0.88215368     0.13700
H690        H  0.31012974  0.60090374  0.91390821    -0.00500
H691        H  0.28517526  0.65381859  0.83280688     0.14000
H692        H  0.26828444  0.56126687  0.83193257     0.13800
O693        O  0.23687679  0.58287646  0.94542509    -0.73800
O694        O  0.16864172  0.58575320  0.00882489    -0.74800
O695        O  0.17125808  0.58384867  0.94385984    -0.63400
O696        O  0.23396592  0.58411256  0.01238091    -0.71800
O697        O  0.23398833  0.63498541  0.01099544    -0.71400
O698        O  0.17378646  0.63454916  0.94143047    -0.62600
O699        O  0.16857305  0.63646653  0.00574059    -0.75100
O700        O  0.23816337  0.63384442  0.94554305    -0.73900
Cu701      Cu  0.20288793  0.58228543  0.97771329     1.04600
Cu702      Cu  0.20388307  0.63663639  0.97604960     1.04300
C703        C  0.24652465  0.60821369  0.93407515     0.92400
C704        C  0.15751073  0.61173777  0.01690593     0.91500
C705        C  0.16241679  0.60912634  0.93206547     0.83700
C706        C  0.24312103  0.60992580  0.02308982     0.89900
O707        O  0.99483601  0.57991070  0.12929467    -0.73800
O708        O  0.06220097  0.57950600  0.19118912    -0.74800
O709        O  0.99475120  0.57910625  0.19346226    -0.63400
O710        O  0.06013912  0.58213613  0.12677381    -0.71800
O711        O  0.05658329  0.63286087  0.12706051    -0.71400
O712        O  0.99685414  0.63001119  0.19643170    -0.62600
O713        O  0.06393184  0.63049784  0.19063868    -0.75100
O714        O  0.99226482  0.63069316  0.13306333    -0.73900
Cu715      Cu  0.02806466  0.57829915  0.16054223     1.04600
Cu716      Cu  0.02743140  0.63272795  0.16229278     1.04300
C717        C  0.98300683  0.60536700  0.12135822     0.92400
C718        C  0.07567388  0.60469167  0.19795601     0.91500
C719        C  0.98371956  0.60467117  0.20305065     0.83700
C720        C  0.06783934  0.60828488  0.11575652     0.89900
C721        C  0.30357100  0.63546805  0.08195436     0.85600
C722        C  0.28402641  0.63584857  0.05292877    -0.54600
C723        C  0.26443634  0.61152661  0.04962474     0.08500
C724        C  0.26567680  0.58843567  0.07667259     0.19500
C725        C  0.27998768  0.63236701  0.10858045    -0.55300
C726        C  0.25986996  0.60803448  0.10608455     0.08700
C727        C  0.31927075  0.60371190  0.08235989    -0.54900
C728        C  0.29964890  0.57927850  0.07926964     0.09200
H729        H  0.28567241  0.65420398  0.03618761     0.13700
H730        H  0.25064242  0.56796954  0.07419588    -0.00500
H731        H  0.28023917  0.64688242  0.12883104     0.14000
H732        H  0.34384831  0.60069456  0.08618999     0.13800
O733        O  0.88626261  0.44522987  0.02273162    -0.73800
O734        O  0.81451179  0.42971570  0.96777383    -0.74800
O735        O  0.82309153  0.43122355  0.03475712    -0.63400
O736        O  0.87818116  0.44109848  0.95806146    -0.71800
O737        O  0.89066145  0.39236039  0.96297958    -0.71400
O738        O  0.82999545  0.38092254  0.03122820    -0.62600
O739        O  0.82744085  0.38043424  0.96504111    -0.75100
O740        O  0.89326797  0.39480521  0.02627734    -0.73900
Cu741      Cu  0.84988688  0.43867280  0.99597838     1.04600
Cu742      Cu  0.86039853  0.38544295  0.99656008     1.04300
C743        C  0.90071204  0.42229686  0.03333623     0.92400
C744        C  0.81265657  0.40347621  0.95478123     0.91500
C745        C  0.81852694  0.40407020  0.04526675     0.83700
C746        C  0.89354367  0.41761536  0.94874225     0.89900
O747        O  0.05967128  0.37950027  0.84296125    -0.73800
O748        O  0.99524486  0.37995728  0.77828665    -0.74800
O749        O  0.06216359  0.37405233  0.77897102    -0.63400
O750        O  0.99499400  0.38622712  0.84226658    -0.71800
O751        O  0.99933447  0.43637393  0.83801364    -0.71400
O752        O  0.06541095  0.42457140  0.77299036    -0.62600
O753        O  0.99875660  0.43065159  0.77397572    -0.75100
O754        O  0.06604099  0.42951642  0.83731798    -0.73900
Cu755      Cu  0.02786258  0.37821253  0.81043530     1.04600
Cu756      Cu  0.03264744  0.43203571  0.80523271     1.04300
C757        C  0.07355434  0.40429326  0.85015204     0.92400
C758        C  0.98481388  0.40538143  0.76841070     0.91500
C759        C  0.07568771  0.39762312  0.76765822     0.83700
C760        C  0.98587215  0.41308170  0.84991222     0.89900
O761        O  0.00269557  0.38871287  0.12553280    -0.73800
O762        O  0.06498183  0.36670738  0.18854444    -0.74800
O763        O  0.99848670  0.37145655  0.18771718    -0.63400
O764        O  0.06645707  0.38324558  0.12661346    -0.71800
O765        O  0.06906870  0.43301985  0.13753600    -0.71400
O766        O  0.00062452  0.42084449  0.20029452    -0.62600
O767        O  0.06891062  0.41637401  0.19977107    -0.75100
O768        O  0.00530382  0.43821299  0.13827547    -0.73900
Cu769      Cu  0.03296968  0.37581758  0.15689116     1.04600
Cu770      Cu  0.03612750  0.42882255  0.16989884     1.04300
C771        C  0.99475068  0.41661843  0.12163512     0.92400
C772        C  0.07865055  0.38882389  0.20219584     0.91500
C773        C  0.98764465  0.39442962  0.20257287     0.83700
C774        C  0.07742351  0.40990367  0.12134615     0.89900
C775        C  0.93217942  0.36635675  0.26623827     0.85600
C776        C  0.90365712  0.36583032  0.24485645    -0.54600
C777        C  0.90304939  0.38862421  0.22286155     0.08500
C778        C  0.93168541  0.41075386  0.22524680     0.19500
C779        C  0.95922186  0.36569026  0.24283578    -0.55300
C780        C  0.96039304  0.38974641  0.22310417     0.08700
C781        C  0.93224524  0.39898154  0.27965792    -0.54900
C782        C  0.93160443  0.42207372  0.25873494     0.09200
H783        H  0.88556391  0.34859622  0.24687396     0.13700
H784        H  0.93218888  0.42947498  0.20808329    -0.00500
H785        H  0.97527958  0.34694094  0.24009201     0.14000
H786        H  0.93152455  0.40347633  0.30416656     0.13800
O787        O  0.17709219  0.38099489  0.01919340    -0.73800
O788        O  0.23957900  0.36883915  0.95233630    -0.74800
O789        O  0.24126536  0.37214389  0.01847635    -0.63400
O790        O  0.17565867  0.37655982  0.95540551    -0.71800
O791        O  0.18565801  0.42591779  0.94875739    -0.71400
O792        O  0.24551111  0.42292146  0.01971970    -0.62600
O793        O  0.25031505  0.41874246  0.95270407    -0.75100
O794        O  0.18151170  0.43147683  0.01346037    -0.73900
Cu795      Cu  0.20851534  0.37286580  0.98656039     1.04600
Cu796      Cu  0.21628609  0.42658487  0.98362322     1.04300
C797        C  0.16867895  0.40827166  0.02597616     0.92400
C798        C  0.25307196  0.39216177  0.94054303     0.91500
C799        C  0.25194451  0.39658737  0.03077346     0.83700
C800        C  0.17040515  0.40167770  0.94165761     0.89900
C801        C  0.26137079  0.38616353  0.85333827     0.85600
C802        C  0.27808833  0.41720509  0.85274153    -0.54600
C803        C  0.29698923  0.42322187  0.87669759     0.08500
C804        C  0.29968183  0.39597530  0.89934489     0.19500
C805        C  0.28795267  0.36221730  0.85569843    -0.55300
C806        C  0.30837692  0.36726149  0.87941744     0.08700
C807        C  0.24673796  0.38343979  0.88553233    -0.54900
C808        C  0.26612607  0.38941740  0.90935664     0.09200
H809        H  0.27424719  0.43391001  0.83472254     0.13700
H810        H  0.31542885  0.40039893  0.91882068    -0.00500
H811        H  0.28914080  0.34101096  0.84285592     0.14000
H812        H  0.22238730  0.37842722  0.88919171     0.13800
C813        C  0.16594574  0.23219832  0.59862214     0.85600
C814        C  0.16952263  0.24959064  0.56802908    -0.54600
C815        C  0.14564108  0.26884743  0.56141542     0.08500
C816        C  0.12123963  0.27146222  0.58760839     0.19500
C817        C  0.16404936  0.25918282  0.62192493    -0.55300
C818        C  0.14021219  0.27940748  0.61676175     0.08700
C819        C  0.13344070  0.21873905  0.59868286    -0.54900
C820        C  0.11040457  0.23854812  0.59278258     0.09200
H821        H  0.18914734  0.24638178  0.55254263     0.13700
H822        H  0.10203219  0.28738268  0.58285484    -0.00500
H823        H  0.18099496  0.26378255  0.63948800     0.14000
H824        H  0.12898377  0.19449587  0.60170951     0.13800
C825        C  0.93260814  0.28728598  0.62247445     0.85600
C826        C  0.93331021  0.29935435  0.58938224    -0.54600
C827        C  0.93366919  0.27729487  0.56703643     0.08500
C828        C  0.93488501  0.24433180  0.57994438     0.19500
C829        C  0.90543497  0.26457317  0.62346543    -0.55300
C830        C  0.90668910  0.24108746  0.60252442     0.08700
C831        C  0.96232588  0.26760341  0.62278840    -0.54900
C832        C  0.96336731  0.24524449  0.60071004     0.09200
H833        H  0.93459655  0.32349768  0.58375406     0.13700
H834        H  0.93684607  0.22611670  0.56219895    -0.00500
H835        H  0.88660743  0.26705269  0.63998691     0.14000
H836        H  0.98200254  0.27237854  0.63735801     0.13800
O837        O  0.06421421  0.86137240  0.59179721    -0.73800
O838        O  0.99970616  0.79653492  0.61078473    -0.74800
O839        O  0.06583186  0.79713802  0.60260448    -0.63400
O840        O  0.00007787  0.85852424  0.60209061    -0.71800
O841        O  0.99397424  0.85326783  0.55205979    -0.71400
O842        O  0.06189156  0.78896011  0.55241833    -0.62600
O843        O  0.99407711  0.78884432  0.56069097    -0.75100
O844        O  0.05867989  0.85316770  0.54177349    -0.73900
Cu845      Cu  0.03295015  0.82837826  0.60341655     1.04600
Cu846      Cu  0.02703366  0.82041743  0.54988890     1.04300
C847        C  0.07081159  0.86809881  0.56385642     0.92400
C848        C  0.98460787  0.78505705  0.58834874     0.91500
C849        C  0.07508302  0.78384166  0.57811101     0.83700
C850        C  0.98660959  0.86614532  0.57762937     0.89900
O851        O  0.83328248  0.04160119  0.62898025    -0.73800
O852        O  0.88850183  0.96999313  0.61507622    -0.74800
O853        O  0.89592344  0.03389479  0.61648276    -0.63400
O854        O  0.82624049  0.97555682  0.62874104    -0.71800
O855        O  0.82062110  0.97203933  0.57817602    -0.71400
O856        O  0.88346535  0.03963616  0.56762625    -0.62600
O857        O  0.88362314  0.97478171  0.56464524    -0.75100
O858        O  0.81962135  0.03927627  0.57995371    -0.73900
Cu859      Cu  0.86103191  0.00516624  0.62409157     1.04600
Cu860      Cu  0.85113718  0.00644619  0.57078619     1.04300
C861        C  0.81927791  0.05290626  0.60601173     0.92400
C862        C  0.89578247  0.96189927  0.58773526     0.91500
C863        C  0.90007937  0.04698480  0.59068799     0.83700
C864        C  0.81491478  0.96218586  0.60526080     0.89900
C865        C  0.29732564  0.88879219  0.62421476     0.85600
C866        C  0.28009767  0.91923540  0.62080718    -0.54600
C867        C  0.26233249  0.92158385  0.59537395     0.08500
C868        C  0.26182783  0.89215208  0.57542815     0.19500
C869        C  0.27146425  0.86390375  0.62290665    -0.55300
C870        C  0.25250724  0.86590183  0.59771080     0.08700
C871        C  0.31403397  0.88329448  0.59316520    -0.54900
C872        C  0.29593597  0.88571218  0.56778577     0.09200
H873        H  0.28230095  0.93792453  0.63730310     0.13700
H874        H  0.24710837  0.89380456  0.55484739    -0.00500
H875        H  0.26932885  0.84499330  0.63881207     0.14000
H876        H  0.33866373  0.87917166  0.59130875     0.13800
O877        O  0.18092341  0.97209074  0.54494328    -0.73800
O878        O  0.25022536  0.02908735  0.56977552    -0.74800
O879        O  0.24277813  0.96196326  0.56323768    -0.63400
O880        O  0.18781491  0.03731309  0.55275461    -0.71800
O881        O  0.17073883  0.02981478  0.60006630    -0.71400
O882        O  0.22988886  0.96182334  0.61270735    -0.62600
O883        O  0.23250542  0.02794731  0.61781847    -0.75100
O884        O  0.16800858  0.96632665  0.59411690    -0.73900
Cu885      Cu  0.21624925  0.00006702  0.55588774     1.04600
Cu886      Cu  0.20008842  0.99619062  0.60780231     1.04300
C887        C  0.16367164  0.96029234  0.56576783     0.92400
C888        C  0.24949867  0.04023106  0.59699655     0.91500
C889        C  0.24414165  0.94972714  0.58989288     0.83700
C890        C  0.17031765  0.04526257  0.57539131     0.89900
O891        O  0.00440162  0.14922882  0.60825843    -0.73800
O892        O  0.06857500  0.21306273  0.61515413    -0.74800
O893        O  0.00311318  0.21279680  0.61893994    -0.63400
O894        O  0.06868347  0.14985658  0.60468956    -0.71800
O895        O  0.06871618  0.15797129  0.55476372    -0.71400
O896        O  0.99973220  0.21929561  0.56851804    -0.62600
O897        O  0.06655973  0.22201160  0.56497563    -0.75100
O898        O  0.00169531  0.15578327  0.55797687    -0.73900
Cu899      Cu  0.03619352  0.18113552  0.61338270     1.04600
Cu900      Cu  0.03402448  0.18918625  0.55968375     1.04300
C901        C  0.99232113  0.14257326  0.58251506     0.92400
C902        C  0.07918470  0.22601755  0.59108464     0.91500
C903        C  0.99021238  0.22506168  0.59585299     0.83700
C904        C  0.07992010  0.14426118  0.57804648     0.89900
C905        C  0.25340054  0.12708173  0.60442655     0.85600
C906        C  0.24030108  0.09463956  0.60527283    -0.54600
C907        C  0.26131872  0.07167153  0.60240193     0.08500
C908        C  0.29495049  0.08348683  0.59889127     0.19500
C909        C  0.27777226  0.12737948  0.62977097    -0.55300
C910        C  0.30029616  0.10548377  0.62672921     0.08700
C911        C  0.27359060  0.12866213  0.57485768    -0.54900
C912        C  0.29426744  0.10530565  0.57147044     0.09200
H913        H  0.21520840  0.09016570  0.60573104     0.13700
H914        H  0.31246772  0.06521625  0.59567795    -0.00500
H915        H  0.27895208  0.14500399  0.64728291     0.14000
H916        H  0.27168467  0.14685316  0.55802272     0.13800
O917        O  0.89688141  0.97162290  0.42483428    -0.73800
O918        O  0.83167391  0.03526036  0.41885555    -0.74800
O919        O  0.83234934  0.96857555  0.42230445    -0.63400
O920        O  0.89641523  0.03585006  0.41998409    -0.71800
O921        O  0.89870107  0.03074565  0.36933317    -0.71400
O922        O  0.83398315  0.96633999  0.37124323    -0.62600
O923        O  0.83385715  0.03164325  0.36791558    -0.75100
O924        O  0.89757523  0.96723644  0.37391074    -0.73900
Cu925      Cu  0.86393191  0.00302499  0.42338817     1.04600
Cu926      Cu  0.86583763  0.99900298  0.36889141     1.04300
C927        C  0.90743514  0.95947458  0.40022423     0.92400
C928        C  0.82370951  0.04455758  0.39240070     0.91500
C929        C  0.82533556  0.95535513  0.39696603     0.83700
C930        C  0.90807406  0.04341688  0.39397669     0.89900
O931        O  0.06900889  0.85117209  0.40580104    -0.73800
O932        O  0.00333059  0.78542308  0.40536766    -0.74800
O933        O  0.07153414  0.78683336  0.40123787    -0.63400
O934        O  0.00490136  0.84873800  0.41245938    -0.71800
O935        O  0.00229813  0.85451595  0.36189304    -0.71400
O936        O  0.06684599  0.78952304  0.35059874    -0.62600
O937        O  0.00098115  0.79095793  0.35472255    -0.75100
O938        O  0.06744201  0.85294791  0.35531641    -0.73900
Cu939      Cu  0.03733205  0.81757974  0.40801728     1.04600
Cu940      Cu  0.03417519  0.82197760  0.35387771     1.04300
C941        C  0.07911332  0.86207936  0.38040479     0.92400
C942        C  0.99045055  0.77964836  0.37960048     0.91500
C943        C  0.08071434  0.77937069  0.37428163     0.83700
C944        C  0.99378227  0.86198556  0.38917301     0.89900
O945        O  0.00975254  0.15181911  0.41129547    -0.73800
O946        O  0.07912978  0.21357642  0.40794896    -0.74800
O947        O  0.01130674  0.21604017  0.40743040    -0.63400
O948        O  0.07500250  0.14943126  0.41302656    -0.71800
O949        O  0.07849979  0.14700039  0.36218606    -0.71400
O950        O  0.01037648  0.20930972  0.35687449    -0.62600
O951        O  0.07860674  0.21079592  0.35698208    -0.75100
O952        O  0.01379521  0.14549772  0.36089623    -0.73900
Cu953      Cu  0.04379105  0.18329576  0.41167852     1.04600
Cu954      Cu  0.04537449  0.17853785  0.35744364     1.04300
C955        C  0.00163874  0.13811258  0.38659211     0.92400
C956        C  0.09144423  0.21956101  0.38181025     0.91500
C957        C  0.99821863  0.22005026  0.38161947     0.83700
C958        C  0.08655027  0.13753273  0.38863439     0.89900
C959        C  0.90957387  0.22113207  0.38565443     0.85600
C960        C  0.91135326  0.23859707  0.41589330    -0.54600
C961        C  0.93369103  0.26035439  0.41735138     0.08500
C962        C  0.95348561  0.26317337  0.38762269     0.19500
C963        C  0.90695448  0.24619528  0.36058421    -0.55300
C964        C  0.92963833  0.26849919  0.36156729     0.08700
C965        C  0.94252869  0.20900665  0.37948278    -0.54900
C966        C  0.96560011  0.23045091  0.38146722     0.09200
H967        H  0.89519841  0.23448394  0.43478155     0.13700
H968        H  0.97195656  0.28088563  0.38891140    -0.00500
H969        H  0.88950475  0.24580179  0.34284741     0.14000
H970        H  0.94753072  0.18518465  0.37466402     0.13800
O971        O  0.18747803  0.96626883  0.35950669    -0.73800
O972        O  0.25169318  0.03081114  0.36331394    -0.74800
O973        O  0.25092329  0.96443684  0.35949529    -0.63400
O974        O  0.18704487  0.03119806  0.36462496    -0.71800
O975        O  0.18727345  0.02868227  0.41548398    -0.71400
O976        O  0.25014692  0.96110105  0.41039954    -0.62600
O977        O  0.25265980  0.02820013  0.41425415    -0.75100
O978        O  0.18520475  0.96392901  0.41004912    -0.73900
Cu979      Cu  0.21960790  0.99840027  0.36008696     1.04600
Cu980      Cu  0.21917064  0.99541215  0.41440963     1.04300
C981        C  0.17622274  0.95438958  0.38374598     0.92400
C982        C  0.26065633  0.04124748  0.38910263     0.91500
C983        C  0.25779547  0.95025754  0.38409142     0.83700
C984        C  0.17688023  0.04029309  0.39084082     0.89900
C985        C  0.26042273  0.86249239  0.37698062     0.85600
C986        C  0.24725249  0.89536090  0.37676480    -0.54600
C987        C  0.26837866  0.91821556  0.38176580     0.08500
C988        C  0.30105750  0.90643192  0.38815880     0.19500
C989        C  0.28811013  0.86333378  0.35435431    -0.55300
C990        C  0.30940604  0.88607770  0.35982538     0.08700
C991        C  0.27499133  0.86126313  0.40925838    -0.54900
C992        C  0.29600524  0.88403932  0.41530155     0.09200
H993        H  0.22276498  0.90041040  0.37540441     0.13700
H994        H  0.31808351  0.92497786  0.39277364    -0.00500
H995        H  0.29040996  0.84742273  0.33518333     0.14000
H996        H  0.26838709  0.84446089  0.42645564     0.13800
C997        C  0.18010709  0.22655489  0.37958175     0.85600
C998        C  0.14779718  0.21131557  0.37812073    -0.54600
C999        C  0.12344788  0.23130400  0.38036814     0.08500
C1000       C  0.13337723  0.26489681  0.38422580     0.19500
C1001       C  0.17979952  0.25119336  0.35459016    -0.55300
C1002       C  0.15533835  0.27093812  0.35630681     0.08700
C1003       C  0.17821959  0.24394280  0.41035875    -0.54900
C1004       C  0.15433616  0.26406858  0.41292269     0.09200
H1005       H  0.14433548  0.18673077  0.37658951     0.13700
H1006       H  0.11369202  0.28111880  0.38613033    -0.00500
H1007       H  0.19704191  0.25226778  0.33628524     0.14000
H1008       H  0.19326985  0.23941588  0.42959797     0.13800
C1009       C  0.27213430  0.12805092  0.38813229     0.85600
C1010       C  0.28365443  0.12596244  0.42133526    -0.54600
C1011       C  0.30259261  0.10163650  0.42689962     0.08500
C1012       C  0.30783178  0.08048866  0.39870586     0.19500
C1013       C  0.30122430  0.12657353  0.36772999    -0.55300
C1014       C  0.32001100  0.10196699  0.37265555     0.08700
C1015       C  0.25617382  0.09674377  0.38418150    -0.54900
C1016       C  0.27460519  0.07199406  0.38950792     0.09200
H1017       H  0.27696828  0.14199003  0.43937687     0.13700
H1018       H  0.32292240  0.06045698  0.40312006    -0.00500
H1019       H  0.30626626  0.14355062  0.35017493     0.14000
H1020       H  0.23162949  0.09415715  0.37964641     0.13800
O1021       O  0.38536641  0.86647894  0.45797824    -0.73800
O1022       O  0.32160979  0.86092917  0.52568974    -0.74800
O1023       O  0.32053137  0.86140990  0.45838890    -0.63400
O1024       O  0.38632496  0.86428404  0.52233420    -0.71800
O1025       O  0.38078763  0.91470238  0.52676874    -0.71400
O1026       O  0.32048265  0.91225353  0.45616049    -0.62600
O1027       O  0.31551425  0.91144822  0.52378423    -0.75100
O1028       O  0.38467490  0.91719701  0.46257975    -0.73900
Cu1029     Cu  0.35315844  0.86146518  0.49100698     1.04600
Cu1030     Cu  0.34982581  0.91566770  0.49236486     1.04300
C1031       C  0.39594504  0.89291364  0.45063297     0.92400
C1032       C  0.31027880  0.88575656  0.53681801     0.91500
C1033       C  0.31265771  0.88613756  0.44496329     0.83700
C1034       C  0.39400841  0.88974957  0.53466231     0.89900
O1035       O  0.11266738  0.35495854  0.51496759    -0.73800
O1036       O  0.12288786  0.28979723  0.45064689    -0.74800
O1037       O  0.11905844  0.29155979  0.51898861    -0.63400
O1038       O  0.11746672  0.35354436  0.45055939    -0.71800
O1039       O  0.16849894  0.35612514  0.45171860    -0.71400
O1040       O  0.17011978  0.29678587  0.52117150    -0.62600
O1041       O  0.17396665  0.29300843  0.45486514    -0.75100
O1042       O  0.16373829  0.36045281  0.51688307    -0.73900
Cu1043     Cu  0.11623438  0.32195690  0.48373793     1.04600
Cu1044     Cu  0.17084085  0.32659137  0.48632451     1.04300
C1045       C  0.13654657  0.36807873  0.52587185     0.92400
C1046       C  0.15003229  0.28287608  0.44100757     0.91500
C1047       C  0.14478491  0.28631847  0.53233572     0.83700
C1048       C  0.14295992  0.36414303  0.43985142     0.89900
O1049       O  0.32388283  0.07660854  0.53469916    -0.73800
O1050       O  0.39213647  0.06983803  0.47147169    -0.74800
O1051       O  0.38952259  0.07362008  0.53639366    -0.63400
O1052       O  0.32758743  0.07349436  0.46705903    -0.71800
O1053       O  0.32710461  0.12442128  0.46913572    -0.71400
O1054       O  0.39332832  0.12395621  0.53107308    -0.62600
O1055       O  0.39058153  0.12049711  0.46720535    -0.75100
O1056       O  0.32783820  0.12742238  0.53409857    -0.73900
Cu1057     Cu  0.35782565  0.07141839  0.50261189     1.04600
Cu1058     Cu  0.35962862  0.12568838  0.50045342     1.04300
C1059       C  0.31611418  0.10297021  0.54530472     0.92400
C1060       C  0.40186117  0.09462168  0.45921758     0.91500
C1061       C  0.40221559  0.09920145  0.54362450     0.83700
C1062       C  0.31928766  0.09937934  0.45610312     0.89900
O1063       O  0.90226726  0.35577852  0.51851016    -0.73800
O1064       O  0.90794289  0.28873991  0.45609726    -0.74800
O1065       O  0.90721360  0.29216735  0.52222299    -0.63400
O1066       O  0.90193180  0.35242118  0.45280676    -0.71800
O1067       O  0.95299486  0.35682468  0.45193639    -0.71400
O1068       O  0.95844572  0.29640766  0.52156453    -0.62600
O1069       O  0.95914815  0.29303639  0.45374695    -0.75100
O1070       O  0.95319487  0.36061229  0.51651512    -0.73900
Cu1071     Cu  0.90312535  0.32188785  0.48732881     1.04600
Cu1072     Cu  0.95777418  0.32655829  0.48589122     1.04300
C1073       C  0.92705633  0.36879263  0.52767803     0.92400
C1074       C  0.93394063  0.28159325  0.44375470     0.91500
C1075       C  0.93336383  0.28705742  0.53450725     0.83700
C1076       C  0.92657646  0.36419465  0.44138813     0.89900
C1077       C  0.14303959  0.36174630  0.25650036     0.85600
C1078       C  0.11133192  0.36074389  0.24014971    -0.54600
C1079       C  0.10763644  0.38326592  0.21869359     0.08500
C1080       C  0.13583218  0.40474734  0.21495204     0.19500
C1081       C  0.16743619  0.36122098  0.23037699    -0.55300
C1082       C  0.16390493  0.38345450  0.20854629     0.08700
C1083       C  0.14342309  0.39491578  0.26895208    -0.54900
C1084       C  0.14018977  0.41724217  0.24747396     0.09200
H1085       H  0.09266092  0.34518440  0.24642106     0.13700
H1086       H  0.13284275  0.42302208  0.19765609    -0.00500
H1087       H  0.18643661  0.34497327  0.22964518     0.14000
H1088       H  0.14396921  0.40056234  0.29320203     0.13800
C1089       C  0.30907563  0.36832535  0.09073729     0.85600
C1090       C  0.32197825  0.40079025  0.09711784    -0.54600
C1091       C  0.30106406  0.42401794  0.09456887     0.08500
C1092       C  0.26800503  0.41266549  0.08807751     0.19500
C1093       C  0.28293619  0.36595726  0.11518404    -0.55300
C1094       C  0.26117246  0.38882634  0.11387968     0.08700
C1095       C  0.29255413  0.37057239  0.05997630    -0.54900
C1096       C  0.27140973  0.39349965  0.05822658     0.09200
H1097       H  0.34582628  0.40544177  0.10306144     0.13700
H1098       H  0.25077710  0.43136495  0.08672083    -0.00500
H1099       H  0.28211817  0.34828219  0.13264257     0.14000
H1100       H  0.29713915  0.35488192  0.04097743     0.13800
O1101       O  0.38272375  0.47502827  0.12290860    -0.73800
O1102       O  0.31661411  0.53822203  0.11036933    -0.74800
O1103       O  0.31780871  0.47093009  0.11775647    -0.63400
O1104       O  0.38087730  0.53906502  0.11592593    -0.71800
O1105       O  0.38451040  0.53509860  0.06553864    -0.71400
O1106       O  0.32242111  0.46601712  0.06712005    -0.62600
O1107       O  0.32071901  0.53274209  0.05971982    -0.75100
O1108       O  0.38701666  0.46985070  0.07248438    -0.73900
Cu1109     Cu  0.34886074  0.50592192  0.11844265     1.04600
Cu1110     Cu  0.35349222  0.50060767  0.06447814     1.04300
C1111       C  0.39590086  0.46289433  0.09947255     0.92400
C1112       C  0.31122582  0.54775863  0.08321710     0.91500
C1113       C  0.31252758  0.45600415  0.09298017     0.83700
C1114       C  0.39245020  0.54830141  0.09050647     0.89900
O1115       O  0.89792959  0.53059446  0.27292986    -0.73800
O1116       O  0.90347030  0.47054862  0.34130540    -0.74800
O1117       O  0.89964324  0.53588867  0.33682214    -0.63400
O1118       O  0.90317674  0.46451400  0.27815098    -0.71800
O1119       O  0.95434590  0.46904807  0.27569659    -0.71400
O1120       O  0.95055461  0.53709706  0.33858214    -0.62600
O1121       O  0.95468039  0.47222324  0.34019703    -0.75100
O1122       O  0.94896492  0.53642697  0.27412760    -0.73900
Cu1123     Cu  0.89934855  0.50032281  0.30712021     1.04600
Cu1124     Cu  0.95397330  0.50387829  0.30673629     1.04300
C1125       C  0.92237183  0.54497751  0.26473978     0.92400
C1126       C  0.92947397  0.46116779  0.35113936     0.91500
C1127       C  0.92445468  0.54769560  0.34747276     0.83700
C1128       C  0.92956321  0.45416816  0.26966821     0.89900
O1129       O  0.38346342  0.53460247  0.85393537    -0.73800
O1130       O  0.32222265  0.46569101  0.85310154    -0.74800
O1131       O  0.31964313  0.53244482  0.85100492    -0.63400
O1132       O  0.38599399  0.46878117  0.85545668    -0.71800
O1133       O  0.38431576  0.47029908  0.90623474    -0.71400
O1134       O  0.31801895  0.53576981  0.90182119    -0.62600
O1135       O  0.31997028  0.46610062  0.90400363    -0.75100
O1136       O  0.38260641  0.53526376  0.90466813    -0.73900
Cu1137     Cu  0.35273183  0.50031429  0.85173144     1.04600
Cu1138     Cu  0.35073722  0.50190932  0.90603105     1.04300
C1139       C  0.39251722  0.54623105  0.87927747     0.92400
C1140       C  0.31366947  0.45317517  0.87830149     0.91500
C1141       C  0.31062321  0.54628539  0.87543211     0.83700
C1142       C  0.39526131  0.45892550  0.88131544     0.89900
O1143       O  0.11345833  0.46172051  0.33146059    -0.73800
O1144       O  0.11106756  0.52845635  0.26782651    -0.74800
O1145       O  0.11258943  0.46058278  0.26681400    -0.63400
O1146       O  0.11338235  0.52631477  0.33247981    -0.71800
O1147       O  0.16443973  0.52332237  0.33255561    -0.71400
O1148       O  0.16391317  0.46304691  0.26359181    -0.62600
O1149       O  0.16244124  0.52876273  0.26794806    -0.75100
O1150       O  0.16452747  0.45953113  0.32684194    -0.73900
Cu1151     Cu  0.11067447  0.49431122  0.29928928     1.04600
Cu1152     Cu  0.16547189  0.49389870  0.29735473     1.04300
C1153       C  0.13938400  0.45044895  0.33944267     0.92400
C1154       C  0.13681095  0.54026961  0.25923378     0.91500
C1155       C  0.13853112  0.44947833  0.25758607     0.83700
C1156       C  0.13943301  0.53431829  0.34373780     0.89900
C1157       C  0.43363244  0.13353429  0.23117779     0.85600
C1158       C  0.43555526  0.10236454  0.21471047    -0.54600
C1159       C  0.43953472  0.07773255  0.23328385     0.08500
C1160       C  0.44193295  0.08615658  0.26741242     0.19500
C1161       C  0.40795959  0.12948734  0.25603909    -0.55300
C1162       C  0.41226395  0.10482004  0.27528532     0.08700
C1163       C  0.46217500  0.13580277  0.25160230    -0.54900
C1164       C  0.46795171  0.11037144  0.26834400     0.09200
H1165       H  0.43350294  0.09998763  0.18993487     0.13700
H1166       H  0.44570462  0.06618562  0.28262888    -0.00500
H1167       H  0.38945807  0.14591312  0.25978470     0.14000
H1168       H  0.47602036  0.15648889  0.25394973     0.13800
C1169       C  0.42592106  0.22965823  0.13299462     0.85600
C1170       C  0.45252426  0.25270072  0.13508720    -0.54600
C1171       C  0.45828650  0.26910809  0.10929612     0.08500
C1172       C  0.43331078  0.26479283  0.08446006     0.19500
C1173       C  0.39862882  0.25209030  0.12758043    -0.55300
C1174       C  0.40219585  0.27058415  0.10192074     0.08700
C1175       C  0.42973931  0.21245334  0.10232736    -0.54900
C1176       C  0.43320159  0.23057075  0.07725541     0.09200
H1177       H  0.46610323  0.25560930  0.15578098     0.13700
H1178       H  0.43693940  0.27838428  0.06331688    -0.00500
H1179       H  0.37942176  0.25512127  0.14349256     0.14000
H1180       H  0.42905264  0.18755141  0.10058711     0.13800
O1181       O  0.56181713  0.35703690  0.91227397    -0.73800
O1182       O  0.49612862  0.29085890  0.91758623    -0.74800
O1183       O  0.56584288  0.29296415  0.91858399    -0.63400
O1184       O  0.49678101  0.35489562  0.91229547    -0.71800
O1185       O  0.49618033  0.34887528  0.86168766    -0.71400
O1186       O  0.56673488  0.29013768  0.86772438    -0.62600
O1187       O  0.49998867  0.28575386  0.86698745    -0.75100
O1188       O  0.56084639  0.35403994  0.86144380    -0.73900
Cu1189     Cu  0.53013832  0.32370915  0.91712037     1.04600
Cu1190     Cu  0.53105154  0.31920250  0.86285584     1.04300
C1191       C  0.57075445  0.36664630  0.88591910     0.92400
C1192       C  0.48607976  0.27972519  0.89226124     0.91500
C1193       C  0.57878675  0.28369786  0.89362428     0.83700
C1194       C  0.48592328  0.36181258  0.88608291     0.89900
O1195       O  0.50984083  0.12579187  0.35927884    -0.73800
O1196       O  0.57448427  0.13122867  0.29524052    -0.74800
O1197       O  0.50885174  0.13207132  0.29683393    -0.63400
O1198       O  0.57545275  0.12315602  0.35822217    -0.71800
O1199       O  0.57346148  0.07245331  0.35317654    -0.71400
O1200       O  0.50723768  0.08130163  0.29173440    -0.62600
O1201       O  0.57504905  0.08046974  0.28989402    -0.75100
O1202       O  0.50840477  0.07529354  0.35495835    -0.73900
Cu1203     Cu  0.54232421  0.12978945  0.32746798     1.04600
Cu1204     Cu  0.54103948  0.07554317  0.32194516     1.04300
C1205       C  0.49797650  0.10015290  0.36679277     0.92400
C1206       C  0.58628643  0.10698992  0.28375716     0.91500
C1207       C  0.49609041  0.10775340  0.28638817     0.83700
C1208       C  0.58474202  0.09640213  0.36560699     0.89900
O1209       O  0.56936635  0.35481168  0.13408927    -0.73800
O1210       O  0.49686881  0.29910759  0.13309458    -0.74800
O1211       O  0.56237937  0.29185109  0.13463190    -0.63400
O1212       O  0.50438780  0.36301531  0.13349295    -0.71800
O1213       O  0.50235387  0.36005969  0.08278663    -0.71400
O1214       O  0.56676537  0.29372881  0.08381903    -0.62600
O1215       O  0.49877590  0.29587711  0.08221952    -0.75100
O1216       O  0.56779889  0.35809566  0.08351737    -0.73900
Cu1217     Cu  0.53308287  0.32706152  0.13550257     1.04600
Cu1218     Cu  0.53393759  0.32668481  0.08117203     1.04300
C1219       C  0.57989126  0.36586003  0.10905395     0.92400
C1220       C  0.48582546  0.28912630  0.10783092     0.91500
C1221       C  0.57593849  0.28371399  0.10974365     0.83700
C1222       C  0.49354794  0.37239941  0.10808603     0.89900
O1223       O  0.57198019  0.92243548  0.28589649    -0.73800
O1224       O  0.50659606  0.92310815  0.35221561    -0.74800
O1225       O  0.57207142  0.92282914  0.35073284    -0.63400
O1226       O  0.50362280  0.92184726  0.28778054    -0.71800
O1227       O  0.50791544  0.87116633  0.28550746    -0.71400
O1228       O  0.56819581  0.87228461  0.35406161    -0.62600
O1229       O  0.50357199  0.87235047  0.34948966    -0.75100
O1230       O  0.57492058  0.87178109  0.29008005    -0.73900
Cu1231     Cu  0.53854328  0.92442674  0.31880517     1.04600
Cu1232     Cu  0.53861902  0.87017755  0.31945262     1.04300
C1233       C  0.58597033  0.89718316  0.28025418     0.92400
C1234       C  0.49457507  0.89782374  0.36103517     0.91500
C1235       C  0.58009046  0.89752247  0.36306967     0.83700
C1236       C  0.49409063  0.89579832  0.27788334     0.89900
C1237       C  0.92851139  0.72221686  0.35453936     0.85600
C1238       C  0.90396858  0.74765614  0.35319532    -0.54600
C1239       C  0.90619329  0.76921429  0.37607852     0.08500
C1240       C  0.93354358  0.76401902  0.39803649     0.19500
C1241       C  0.96000592  0.73874624  0.35526015    -0.55300
C1242       C  0.96258415  0.76056934  0.37753331     0.08700
C1243       C  0.92618367  0.70975946  0.38739419    -0.54900
C1244       C  0.92840460  0.73163193  0.40981723     0.09200
H1245       H  0.88569827  0.74795222  0.33625906     0.13700
H1246       H  0.93557453  0.78156011  0.41647073    -0.00500
H1247       H  0.97952169  0.73276016  0.34054039     0.14000
H1248       H  0.92412497  0.68561725  0.39282351     0.13800
C1249       C  0.40243915  0.16683254  0.19327650    -0.02700
C1250       C  0.43125891  0.15958136  0.20695930     0.07000
C1251       C  0.45841571  0.17114194  0.19172925    -0.02800
C1252       C  0.45617447  0.19312215  0.16812087    -0.02800
C1253       C  0.42691389  0.20594327  0.15971955     0.07100
C1254       C  0.40008484  0.19045248  0.17100456    -0.03000
Br1255     Br  0.36003989  0.19695237  0.15293764    -0.01600
Br1256     Br  0.36685104  0.14024758  0.19952609    -0.01600
Br1257     Br  0.49433654  0.20124871  0.14475711    -0.01600
Br1258     Br  0.49979074  0.15443636  0.19833198    -0.01600
C1259       C  0.44286931  0.43255677  0.86053936    -0.02700
C1260       C  0.41827590  0.43373590  0.88228684     0.07000
C1261       C  0.41534730  0.41011961  0.90441461    -0.02800
C1262       C  0.43673308  0.38587421  0.90474606    -0.02800
C1263       C  0.46194797  0.38563938  0.88393848     0.07100
C1264       C  0.46494621  0.40901333  0.86181992    -0.03000
Br1265     Br  0.50057645  0.41038637  0.83443070    -0.01600
Br1266     Br  0.44792568  0.46372727  0.82948281    -0.01600
Br1267     Br  0.43040819  0.35210278  0.93283544    -0.01600
Br1268     Br  0.38159800  0.40959750  0.93394479    -0.01600
C1269       C  0.42147975  0.41918366  0.12740640    -0.02700
C1270       C  0.42187367  0.44095073  0.10335852     0.07000
C1271       C  0.44731748  0.44152680  0.08261103    -0.02800
C1272       C  0.47095917  0.41955730  0.08456753    -0.02800
C1273       C  0.46997185  0.39709373  0.10779370     0.07100
C1274       C  0.44532978  0.39730633  0.12953234    -0.03000
Br1275     Br  0.44214314  0.36589738  0.16074012    -0.01600
Br1276     Br  0.38782370  0.41789839  0.15709377    -0.01600
Br1277     Br  0.50526178  0.42123256  0.05558437    -0.01600
Br1278     Br  0.45154905  0.47370527  0.05248144    -0.01600
C1279       C  0.34691836  0.28724175  0.09281782    -0.02700
C1280       C  0.37874682  0.29472039  0.09353173     0.07000
C1281       C  0.38733782  0.32502125  0.08541978    -0.02800
C1282       C  0.36455828  0.34758212  0.08073582    -0.02800
C1283       C  0.33325922  0.34203624  0.08966633     0.07100
C1284       C  0.32424049  0.31063992  0.09177628    -0.03000
Br1285     Br  0.28124676  0.29853661  0.08906928    -0.01600
Br1286     Br  0.33475014  0.24479115  0.08819171    -0.01600
Br1287     Br  0.37586691  0.38191694  0.05459063    -0.01600
Br1288     Br  0.42973713  0.33699973  0.07950801    -0.01600
C1289       C  0.23927159  0.40394686  0.16601445    -0.02700
C1290       C  0.23478180  0.39061807  0.13672894     0.07000
C1291       C  0.20605773  0.37639080  0.13050756    -0.02800
C1292       C  0.18227113  0.37537106  0.15326547    -0.02800
C1293       C  0.18719981  0.38783405  0.18289264     0.07100
C1294       C  0.21577077  0.40240608  0.18891343    -0.03000
Br1295     Br  0.22299459  0.41969216  0.22908970    -0.01600
Br1296     Br  0.27820237  0.42350055  0.17521635    -0.01600
Br1297     Br  0.14333702  0.35582339  0.14420365    -0.01600
Br1298     Br  0.20009897  0.35664317  0.09129015    -0.01600
C1299       C  0.95078161  0.41196112  0.37258214    -0.02700
C1300       C  0.92967328  0.43668289  0.37466559     0.07000
C1301       C  0.90623503  0.43622145  0.39755641    -0.02800
C1302       C  0.90297759  0.41087906  0.41713163    -0.02800
C1303       C  0.92510134  0.38709684  0.41630624     0.07100
C1304       C  0.94810255  0.38711185  0.39298442    -0.03000
Br1305     Br  0.97418698  0.35157287  0.38687495    -0.01600
Br1306     Br  0.98383398  0.41147298  0.34225598    -0.01600
Br1307     Br  0.86721495  0.40905811  0.44389593    -0.01600
Br1308     Br  0.88026868  0.47172806  0.40468272    -0.01600
C1309       C  0.44914259  0.11785545  0.43718322    -0.02700
C1310       C  0.42678966  0.09432744  0.43605268     0.07000
C1311       C  0.42676138  0.07332314  0.41127552    -0.02800
C1312       C  0.44973749  0.07544627  0.38821912    -0.02800
C1313       C  0.47211496  0.09931769  0.38935389     0.07100
C1314       C  0.46964541  0.12212157  0.41258897    -0.03000
Br1315     Br  0.49097727  0.16122051  0.41058061    -0.01600
Br1316     Br  0.45360247  0.14324010  0.47364175    -0.01600
Br1317     Br  0.44759153  0.04777252  0.35331749    -0.01600
Br1318     Br  0.39473130  0.04243130  0.40787459    -0.01600
C1319       C  0.16614949  0.40828986  0.41000423    -0.02700
C1320       C  0.14287843  0.38544789  0.41331764     0.07000
C1321       C  0.11972711  0.38270897  0.39057301    -0.02800
C1322       C  0.11876886  0.40362152  0.36611413    -0.02800
C1323       C  0.14072109  0.42760333  0.36424089     0.07100
C1324       C  0.16433823  0.42988291  0.38632100    -0.03000
Br1325     Br  0.19338165  0.46399873  0.38596467    -0.01600
Br1326     Br  0.20155220  0.41068655  0.43680563    -0.01600
Br1327     Br  0.08795158  0.39823610  0.33454711    -0.01600
Br1328     Br  0.09069038  0.34872449  0.39057360    -0.01600
C1329       C  0.42091083  0.91727419  0.40468738    -0.02700
C1330       C  0.42178222  0.89545407  0.42853703     0.07000
C1331       C  0.44769041  0.87616080  0.43149791    -0.02800
C1332       C  0.47155328  0.87699390  0.40941492    -0.02800
C1333       C  0.47010241  0.89788322  0.38480108     0.07100
C1334       C  0.44505340  0.91849455  0.38286795    -0.03000
Br1335     Br  0.44244807  0.94730511  0.34936293    -0.01600
Br1336     Br  0.38625656  0.94494162  0.40079840    -0.01600
Br1337     Br  0.50680684  0.85020618  0.41397800    -0.01600
Br1338     Br  0.45192880  0.85029478  0.46719157    -0.01600
C1339       C  0.37223274  0.11970826  0.35284190    -0.02700
C1340       C  0.34837125  0.09739647  0.35269448     0.07000
C1341       C  0.34907646  0.07447297  0.32957079    -0.02800
C1342       C  0.37174592  0.07530311  0.30581062    -0.02800
C1343       C  0.39276762  0.10006788  0.30372422     0.07100
C1344       C  0.39389126  0.12141736  0.32826637    -0.03000
Br1345     Br  0.42521951  0.15309361  0.32829636    -0.01600
Br1346     Br  0.37500966  0.14816967  0.38680238    -0.01600
Br1347     Br  0.37327691  0.04295110  0.27551895    -0.01600
Br1348     Br  0.31748518  0.04332141  0.32850666    -0.01600
C1349       C  0.25796531  0.18556557  0.39454826    -0.02700
C1350       C  0.25187368  0.15633035  0.38114327     0.07000
C1351       C  0.22931719  0.15556328  0.35759665    -0.02800
C1352       C  0.20715167  0.17922860  0.35554538    -0.02800
C1353       C  0.20781108  0.20429612  0.37641279     0.07100
C1354       C  0.23630020  0.20961219  0.39164452    -0.03000
Br1355     Br  0.24906866  0.25087860  0.40284254    -0.01600
Br1356     Br  0.29766091  0.19494543  0.41284947    -0.01600
Br1357     Br  0.17903279  0.17915009  0.32124108    -0.01600
Br1358     Br  0.23144860  0.12543707  0.32475202    -0.01600
C1359       C  0.16630104  0.34314691  0.30836034    -0.02700
C1360       C  0.14836681  0.33691790  0.28162721     0.07000
C1361       C  0.13700916  0.30641596  0.27823895    -0.02800
C1362       C  0.13737859  0.28572391  0.30328637    -0.02800
C1363       C  0.15059489  0.29434192  0.33162783     0.07100
C1364       C  0.16568892  0.32288966  0.33364795    -0.03000
Br1365     Br  0.18781526  0.33307350  0.37063813    -0.01600
Br1366     Br  0.19814211  0.37454809  0.30830637    -0.01600
Br1367     Br  0.12115488  0.24472054  0.29820372    -0.01600
Br1368     Br  0.12653030  0.29049746  0.23809282    -0.01600
C1369       C  0.13456271  0.11434979  0.41054168    -0.02700
C1370       C  0.10884734  0.11208465  0.39089241     0.07000
C1371       C  0.10412711  0.08505857  0.37353666    -0.02800
C1372       C  0.12597199  0.06127733  0.37434511    -0.02800
C1373       C  0.15270545  0.06425652  0.39246666     0.07100
C1374       C  0.15626934  0.09033804  0.41159143    -0.03000
Br1375     Br  0.19114120  0.09393291  0.43881464    -0.01600
Br1376     Br  0.14119486  0.15092966  0.43497125    -0.01600
Br1377     Br  0.11787418  0.02360594  0.35232187    -0.01600
Br1378     Br  0.06680472  0.07962665  0.34987593    -0.01600
C1379       C  0.15034914  0.90722491  0.40475772    -0.02700
C1380       C  0.15296627  0.92928644  0.38120116     0.07000
C1381       C  0.13392404  0.92636656  0.35493885    -0.02800
C1382       C  0.10999763  0.90436652  0.35435359    -0.02800
C1383       C  0.10497094  0.88472425  0.37995111     0.07100
C1384       C  0.12627367  0.88551187  0.40448170    -0.03000
Br1385     Br  0.12503006  0.85540557  0.43715605    -0.01600
Br1386     Br  0.18199703  0.90356288  0.43575612    -0.01600
Br1387     Br  0.08516207  0.90192149  0.31742382    -0.01600
Br1388     Br  0.14048761  0.95108521  0.31839854    -0.01600
C1389       C  0.93142191  0.08913798  0.36809288    -0.02700
C1390       C  0.93232274  0.06729812  0.39195889     0.07000
C1391       C  0.95661004  0.06819991  0.41337715    -0.02800
C1392       C  0.97934643  0.09128096  0.41146506    -0.02800
C1393       C  0.97830501  0.11327541  0.38777168     0.07100
C1394       C  0.95494111  0.11127893  0.36531252    -0.03000
Br1395     Br  0.95432676  0.13857013  0.33039152    -0.01600
Br1396     Br  0.89658593  0.09085772  0.34043119    -0.01600
Br1397     Br  0.01348633  0.09075748  0.43986295    -0.01600
Br1398     Br  0.96011185  0.03688824  0.44443003    -0.01600
C1399       C  0.92701823  0.90962004  0.41920439    -0.02700
C1400       C  0.93141794  0.93628643  0.40155062     0.07000
C1401       C  0.95778671  0.93975056  0.38271201    -0.02800
C1402       C  0.97862949  0.91556240  0.37963388    -0.02800
C1403       C  0.97233809  0.88741167  0.39411256     0.07100
C1404       C  0.94714639  0.88475386  0.41493053    -0.03000
Br1405     Br  0.93928081  0.84712555  0.43695192    -0.01600
Br1406     Br  0.89333959  0.90672524  0.44868531    -0.01600
Br1407     Br  0.01715084  0.92229098  0.35796685    -0.01600
Br1408     Br  0.96614737  0.97820752  0.36210688    -0.01600
C1409       C  0.11113257  0.10415735  0.54785676    -0.02700
C1410       C  0.10589563  0.12161559  0.57508298     0.07000
C1411       C  0.12458698  0.11571953  0.60098265    -0.02800
C1412       C  0.14432658  0.09022198  0.60134397    -0.02800
C1413       C  0.14961678  0.07264543  0.57423248     0.07100
C1414       C  0.13386051  0.08077878  0.54710326    -0.03000
Br1415     Br  0.14117353  0.05851264  0.50916076    -0.01600
Br1416     Br  0.08602945  0.10994863  0.51183396    -0.01600
Br1417     Br  0.16250597  0.07962086  0.64055449    -0.01600
Br1418     Br  0.12482063  0.14267372  0.63667539    -0.01600
C1419       C  0.94334436  0.07294656  0.56196358    -0.02700
C1420       C  0.92359406  0.07149971  0.58798863     0.07000
C1421       C  0.92594710  0.09407035  0.61131733    -0.02800
C1422       C  0.94631268  0.11884549  0.60758258    -0.02800
C1423       C  0.96700737  0.11970834  0.58224072     0.07100
C1424       C  0.96500842  0.09701818  0.55904113    -0.03000
Br1425     Br  0.99257342  0.09766918  0.52385467    -0.01600
Br1426     Br  0.94361307  0.03987758  0.53218556    -0.01600
Br1427     Br  0.94420916  0.15255692  0.63678461    -0.01600
Br1428     Br  0.90268580  0.09123911  0.64952272    -0.01600
C1429       C  0.10783781  0.94668151  0.56588380    -0.02700
C1430       C  0.13846578  0.93919321  0.55762754     0.07000
C1431       C  0.14509923  0.91021732  0.54475465    -0.02800
C1432       C  0.12202383  0.88735942  0.54428283    -0.02800
C1433       C  0.09265500  0.89343801  0.55724045     0.07100
C1434       C  0.08483336  0.92383664  0.56524953    -0.03000
Br1435     Br  0.04236713  0.93471401  0.57256271    -0.01600
Br1436     Br  0.09756253  0.98830588  0.57760523    -0.01600
Br1437     Br  0.13075006  0.84784766  0.52625719    -0.01600
Br1438     Br  0.18615052  0.90117996  0.52972562    -0.01600
C1439       C  0.93712064  0.89028832  0.55993353    -0.02700
C1440       C  0.96298506  0.89051796  0.57964202     0.07000
C1441       C  0.96599059  0.91428088  0.60199451    -0.02800
C1442       C  0.94546075  0.93891402  0.60209343    -0.02800
C1443       C  0.91921018  0.93805239  0.58336105     0.07100
C1444       C  0.91489323  0.91371536  0.56232121    -0.03000
Br1445     Br  0.87793865  0.91142117  0.53776768    -0.01600
Br1446     Br  0.92992439  0.85660741  0.53169763    -0.01600
Br1447     Br  0.95481878  0.97508061  0.62661905    -0.01600
Br1448     Br  0.99675018  0.91404655  0.63425604    -0.01600
C1449       C  0.19987188  0.19436226  0.63088343    -0.02700
C1450       C  0.18860336  0.20474316  0.60197196     0.07000
C1451       C  0.19123379  0.18342120  0.57683337    -0.02800
C1452       C  0.21029083  0.15736519  0.57874137    -0.02800
C1453       C  0.22783454  0.15186116  0.60538940     0.07100
C1454       C  0.21857189  0.16764973  0.63254109    -0.03000
Br1455     Br  0.22303207  0.14802885  0.67215564    -0.01600
Br1456     Br  0.18590650  0.21187188  0.66954659    -0.01600
Br1457     Br  0.20880303  0.12705626  0.54574865    -0.01600
Br1458     Br  0.16580333  0.18621364  0.54023132    -0.01600
C1459       C  0.90744914  0.33895594  0.31364304    -0.02700
C1460       C  0.93281772  0.34175245  0.29249822     0.07000
C1461       C  0.95930765  0.32321703  0.29886775    -0.02800
C1462       C  0.95675767  0.29759917  0.31848477    -0.02800
C1463       C  0.93129399  0.29441828  0.33866360     0.07100
C1464       C  0.90781490  0.31680709  0.33749114    -0.03000
Br1465     Br  0.87789911  0.31914621  0.37057423    -0.01600
Br1466     Br  0.87279661  0.36688766  0.31245885    -0.01600
Br1467     Br  0.98864159  0.26687170  0.31678724    -0.01600
Br1468     Br  0.00145973  0.33699869  0.29162783    -0.01600
C1469       C  0.11521021  0.39797618  0.04402082    -0.02700
C1470       C  0.14380780  0.41274111  0.04850069     0.07000
C1471       C  0.14905452  0.43025834  0.07523115    -0.02800
C1472       C  0.12694942  0.43024246  0.09905808    -0.02800
C1473       C  0.09917383  0.41355665  0.09553486     0.07100
C1474       C  0.09266595  0.39877578  0.06732429    -0.03000
Br1475     Br  0.05262516  0.38023584  0.05986430    -0.01600
Br1476     Br  0.10661008  0.37729073  0.00558342    -0.01600
Br1477     Br  0.13618495  0.45116074  0.13707736    -0.01600
Br1478     Br  0.18711782  0.45301419  0.08004964    -0.01600
C1479       C  0.11867303  0.37805290  0.87514830    -0.02700
C1480       C  0.09849178  0.40357946  0.87341301     0.07000
C1481       C  0.10180982  0.42805957  0.89458599    -0.02800
C1482       C  0.12569299  0.42773163  0.91632937    -0.02800
C1483       C  0.14608433  0.40249371  0.91782321     0.07100
C1484       C  0.14194038  0.37729102  0.89752898    -0.03000
Br1485     Br  0.16789576  0.34115482  0.89970283    -0.01600
Br1486     Br  0.11554568  0.34377880  0.84671748    -0.01600
Br1487     Br  0.12823103  0.46100139  0.94584913    -0.01600
Br1488     Br  0.07189478  0.46100321  0.89623280    -0.01600
C1489       C  0.97666908  0.43837495  0.07195746    -0.02700
C1490       C  0.97062588  0.42306866  0.09983185     0.07000
C1491       C  0.94107819  0.41186260  0.10676257    -0.02800
C1492       C  0.91763748  0.41498167  0.08563074    -0.02800
C1493       C  0.92413045  0.42679176  0.05652598     0.07100
C1494       C  0.95343028  0.43925447  0.04957818    -0.03000
Br1495     Br  0.96211593  0.45512062  0.00919769    -0.01600
Br1496     Br  0.01655892  0.45678912  0.06414588    -0.01600
Br1497     Br  0.87654552  0.40268320  0.09629685    -0.01600
Br1498     Br  0.93306544  0.39083793  0.14465933    -0.01600
C1499       C  0.91833115  0.39172157  0.90278210    -0.02700
C1500       C  0.91463846  0.41849561  0.92122280     0.07000
C1501       C  0.93173028  0.44516951  0.91332023    -0.02800
C1502       C  0.95455571  0.44406556  0.88971071    -0.02800
C1503       C  0.95955773  0.41655480  0.87258487     0.07100
C1504       C  0.93917036  0.39146113  0.87776623    -0.03000
Br1505     Br  0.93704315  0.35685824  0.84950017    -0.01600
Br1506     Br  0.89505000  0.35426822  0.91068908    -0.01600
Br1507     Br  0.97845384  0.48089703  0.88175535    -0.01600
Br1508     Br  0.92511707  0.48337890  0.93525179    -0.01600
C1509       C  0.10821308  0.59135441  0.03986270    -0.02700
C1510       C  0.13247083  0.61317258  0.04025356     0.07000
C1511       C  0.13378896  0.63518194  0.06423199    -0.02800
C1512       C  0.11268341  0.63358280  0.08893629    -0.02800
C1513       C  0.08961856  0.61044276  0.08950014     0.07100
C1514       C  0.08665308  0.59022930  0.06424287    -0.03000
Br1515     Br  0.05174908  0.56240879  0.06166505    -0.01600
Br1516     Br  0.10326430  0.56390182  0.00517088    -0.01600
Br1517     Br  0.11690621  0.66263868  0.12249644    -0.01600
Br1518     Br  0.16584731  0.66643686  0.06509108    -0.01600
C1519       C  0.93951425  0.62885285  0.05096217    -0.02700
C1520       C  0.91277766  0.61021385  0.05307711     0.07000
C1521       C  0.90946174  0.58918461  0.07757395    -0.02800
C1522       C  0.93276506  0.58691965  0.09971310    -0.02800
C1523       C  0.95919129  0.60592198  0.09762633     0.07100
C1524       C  0.96293918  0.62612320  0.07274514    -0.03000
Br1525     Br  0.00154896  0.64814774  0.06680082    -0.01600
Br1526     Br  0.94524626  0.65765995  0.01787044    -0.01600
Br1527     Br  0.92797264  0.55803370  0.13299628    -0.01600
Br1528     Br  0.87227964  0.56463242  0.08233602    -0.01600
C1529       C  0.08937397  0.62922455  0.88861179    -0.02700
C1530       C  0.08984982  0.60735598  0.86449726     0.07000
C1531       C  0.11492821  0.58664205  0.86200757    -0.02800
C1532       C  0.13885794  0.58743374  0.88380006    -0.02800
C1533       C  0.13815406  0.60910785  0.90810910     0.07100
C1534       C  0.11357607  0.63044145  0.90993891    -0.03000
Br1535     Br  0.11191813  0.66119082  0.94218815    -0.01600
Br1536     Br  0.05472038  0.65690038  0.89389207    -0.01600
Br1537     Br  0.17364845  0.55999952  0.87879301    -0.01600
Br1538     Br  0.11794961  0.55816901  0.82784186    -0.01600
C1539       C  0.92959896  0.63776283  0.91033485    -0.02700
C1540       C  0.91012955  0.61193953  0.91586825     0.07000
C1541       C  0.91069990  0.58731620  0.89432859    -0.02800
C1542       C  0.93116009  0.58799981  0.86877808    -0.02800
C1543       C  0.95232666  0.61261026  0.86482261     0.07100
C1544       C  0.94962370  0.63851633  0.88458838    -0.03000
Br1545     Br  0.97175726  0.67659619  0.87663999    -0.01600
Br1546     Br  0.93093679  0.67260716  0.93827363    -0.01600
Br1547     Br  0.92679131  0.55693973  0.83708132    -0.01600
Br1548     Br  0.88275808  0.55263027  0.89814210    -0.01600
C1549       C  0.90839793  0.64710333  0.31088717    -0.02700
C1550       C  0.92860379  0.64905017  0.28537896     0.07000
C1551       C  0.94522939  0.67634247  0.28026743    -0.02800
C1552       C  0.94186353  0.70136992  0.30051253    -0.02800
C1553       C  0.92557512  0.69788075  0.32883662     0.07100
C1554       C  0.90624939  0.67154043  0.33217849    -0.03000
Br1555     Br  0.87206709  0.67090139  0.36131222    -0.01600
Br1556     Br  0.88132386  0.61189690  0.31473448    -0.01600
Br1557     Br  0.95297308  0.74161455  0.28506003    -0.01600
Br1558     Br  0.97051603  0.68057241  0.24373295    -0.01600
C1559       C  0.22187666  0.60278203  0.18566485    -0.02700
C1560       C  0.19022126  0.59916544  0.17777393     0.07000
C1561       C  0.18428258  0.58777590  0.14776176    -0.02800
C1562       C  0.20602883  0.59216186  0.12405892    -0.02800
C1563       C  0.23663452  0.60090725  0.13097000     0.07100
C1564       C  0.24500614  0.60259553  0.16235212    -0.03000
Br1565     Br  0.28814163  0.60022657  0.17367094    -0.01600
Br1566     Br  0.23472365  0.60317945  0.22808764    -0.01600
Br1567     Br  0.19217056  0.58623502  0.08273476    -0.01600
Br1568     Br  0.15078274  0.55903844  0.13986093    -0.01600
C1569       C  0.38180223  0.31909087  0.86651433    -0.02700
C1570       C  0.38019221  0.29714432  0.89037772     0.07000
C1571       C  0.35622757  0.30022639  0.91259858    -0.02800
C1572       C  0.33331512  0.32350031  0.90986306    -0.02800
C1573       C  0.33469029  0.34508871  0.88560338     0.07100
C1574       C  0.35994413  0.34326872  0.86479513    -0.03000
Br1575     Br  0.36478430  0.37453874  0.83394291    -0.01600
Br1576     Br  0.41365899  0.31566942  0.83532561    -0.01600
Br1577     Br  0.29895920  0.32415994  0.93832745    -0.01600
Br1578     Br  0.35363112  0.27126428  0.94584682    -0.01600
C1579       C  0.47067184  0.09068150  0.11081438    -0.02700
C1580       C  0.44950916  0.06597444  0.11009493     0.07000
C1581       C  0.43085663  0.06151985  0.08406043    -0.02800
C1582       C  0.43060567  0.08355625  0.06069637    -0.02800
C1583       C  0.44966804  0.10985444  0.06276847     0.07100
C1584       C  0.47101257  0.11241558  0.08697009    -0.03000
Br1585     Br  0.50014548  0.14592980  0.08807974    -0.01600
Br1586     Br  0.49838230  0.09547980  0.14484545    -0.01600
Br1587     Br  0.40494841  0.07674767  0.02514268    -0.01600
Br1588     Br  0.40692628  0.02422349  0.07930041    -0.01600
C1589       C  0.35853254  0.90876519  0.28944515    -0.02700
C1590       C  0.38607488  0.89200775  0.29391782     0.07000
C1591       C  0.38894556  0.87486441  0.32123907    -0.02800
C1592       C  0.36478816  0.87458612  0.34363812    -0.02800
C1593       C  0.33700781  0.89076605  0.33879596     0.07100
C1594       C  0.33425250  0.90815201  0.31165403    -0.03000
Br1595     Br  0.29635454  0.92991361  0.30404600    -0.01600
Br1596     Br  0.35291773  0.93063951  0.25157086    -0.01600
Br1597     Br  0.36893968  0.85071150  0.38046145    -0.01600
Br1598     Br  0.42507612  0.84982228  0.32691265    -0.01600
C1599       C  0.46529707  0.07353462  0.90132280    -0.02700
C1600       C  0.44128015  0.07394066  0.87955811     0.07000
C1601       C  0.41664128  0.09488663  0.88318400    -0.02800
C1602       C  0.41468296  0.11362443  0.90934337    -0.02800
C1603       C  0.43932298  0.11432647  0.93045267     0.07100
C1604       C  0.46457163  0.09405652  0.92644170    -0.03000
Br1605     Br  0.49648973  0.09163730  0.95715383    -0.01600
Br1606     Br  0.49807887  0.04350898  0.89842873    -0.01600
Br1607     Br  0.37701789  0.13687649  0.91609643    -0.01600
Br1608     Br  0.38566471  0.09906567  0.85173082    -0.01600
C1609       C  0.45669460  0.92416983  0.05574183    -0.02700
C1610       C  0.43542063  0.89959133  0.05578388     0.07000
C1611       C  0.41297007  0.89745289  0.07961973    -0.02800
C1612       C  0.41341893  0.91830792  0.10429572    -0.02800
C1613       C  0.43702230  0.94077445  0.10609921     0.07100
C1614       C  0.45788473  0.94441608  0.08109136    -0.03000
Br1615     Br  0.48600347  0.97892961  0.07991401    -0.01600
Br1616     Br  0.48165852  0.93207826  0.01954134    -0.01600
Br1617     Br  0.38119605  0.91545596  0.13538057    -0.01600
Br1618     Br  0.38242004  0.86466437  0.08018410    -0.01600
C1619       C  0.45688217  0.89190577  0.89655445    -0.02700
C1620       C  0.43948444  0.89652020  0.92375288     0.07000
C1621       C  0.42569786  0.92512155  0.93009043    -0.02800
C1622       C  0.42814292  0.94868086  0.90858034    -0.02800
C1623       C  0.44335317  0.94325624  0.88036621     0.07100
C1624       C  0.45880833  0.91536297  0.87475177    -0.03000
Br1625     Br  0.48185342  0.90872629  0.83712162    -0.01600
Br1626     Br  0.47691863  0.85316312  0.88834966    -0.01600
Br1627     Br  0.41224133  0.98904932  0.91844442    -0.01600
Br1628     Br  0.40437705  0.93263645  0.96864537    -0.01600
C1629       C  0.60623261  0.09814296  0.11641631    -0.02700
C1630       C  0.62160739  0.06999787  0.11153449     0.07000
C1631       C  0.63624335  0.06404535  0.08311206    -0.02800
C1632       C  0.63876455  0.08725497  0.06105922    -0.02800
C1633       C  0.62417251  0.11582463  0.06595056     0.07100
C1634       C  0.60679498  0.12072500  0.09328604    -0.03000
Br1635     Br  0.58551370  0.15906808  0.10027497    -0.01600
Br1636     Br  0.58628902  0.10673432  0.15537705    -0.01600
Br1637     Br  0.66250972  0.07924395  0.02433805    -0.01600
Br1638     Br  0.65180416  0.02335994  0.07382903    -0.01600
C1639       C  0.65379963  0.89755479  0.08345216    -0.02700
C1640       C  0.62868368  0.89506778  0.06277168     0.07000
C1641       C  0.60250259  0.91430906  0.06728287    -0.02800
C1642       C  0.60261439  0.93702792  0.09046893    -0.02800
C1643       C  0.62714044  0.93849733  0.11148371     0.07100
C1644       C  0.65205992  0.91785034  0.10849212    -0.03000
Br1645     Br  0.68367473  0.91609764  0.13960501    -0.01600
Br1646     Br  0.69122322  0.87333609  0.07904201    -0.01600
Br1647     Br  0.57044894  0.96775034  0.09150262    -0.01600
Br1648     Br  0.56623756  0.91085162  0.04193196    -0.01600
C1649       C  0.60962173  0.10228880  0.88200829    -0.02700
C1650       C  0.63090819  0.07770580  0.88212708     0.07000
C1651       C  0.65297884  0.07607748  0.90564561    -0.02800
C1652       C  0.65483672  0.09934610  0.92787248    -0.02800
C1653       C  0.63148227  0.12215174  0.93003640     0.07100
C1654       C  0.60898578  0.12367186  0.90655925    -0.03000
Br1655     Br  0.57880266  0.15638734  0.90595085    -0.01600
Br1656     Br  0.58302349  0.10834784  0.84713738    -0.01600
Br1657     Br  0.69119490  0.09949080  0.95350378    -0.01600
Br1658     Br  0.67994269  0.04076950  0.90923415    -0.01600
C1659       C  0.60436775  0.93898870  0.90483526    -0.02700
C1660       C  0.62809594  0.94164966  0.88245594     0.07000
C1661       C  0.65300327  0.92045835  0.88273447    -0.02800
C1662       C  0.65404151  0.89704040  0.90490633    -0.02800
C1663       C  0.62990188  0.89387107  0.92703965     0.07100
C1664       C  0.60520724  0.91530597  0.92688473    -0.03000
Br1665     Br  0.57359168  0.91470596  0.95858335    -0.01600
Br1666     Br  0.57203534  0.96952230  0.90744374    -0.01600
Br1667     Br  0.68938587  0.86973691  0.90418180    -0.01600
Br1668     Br  0.68650553  0.92269364  0.85268693    -0.01600
C1669       C  0.67237988  0.18695466  0.15980552    -0.02700
C1670       C  0.64977897  0.21047633  0.16268864     0.07000
C1671       C  0.63793730  0.21617666  0.19272469    -0.02800
C1672       C  0.64025906  0.19333783  0.21537735    -0.02800
C1673       C  0.65324923  0.16443085  0.20761214     0.07100
C1674       C  0.67379484  0.16368886  0.18207610    -0.03000
Br1675     Br  0.70695635  0.13390992  0.17966064    -0.01600
Br1676     Br  0.70485969  0.18884722  0.12882209    -0.01600
Br1677     Br  0.63100608  0.20403754  0.25777819    -0.01600
Br1678     Br  0.62284661  0.25630101  0.20481360    -0.01600
C1679       C  0.61245512  0.44060144  0.90520322    -0.02700
C1680       C  0.63871505  0.43869855  0.88577141     0.07000
C1681       C  0.64175920  0.41375652  0.86494264    -0.02800
C1682       C  0.61882045  0.39079856  0.86386966    -0.02800
C1683       C  0.59290997  0.39244137  0.88392175     0.07100
C1684       C  0.58930982  0.41794614  0.90373587    -0.03000
Br1685     Br  0.55156199  0.42316833  0.92746241    -0.01600
Br1686     Br  0.60754737  0.47444913  0.93369563    -0.01600
Br1687     Br  0.62469314  0.35585806  0.83670756    -0.01600
Br1688     Br  0.67901744  0.40872908  0.84025332    -0.01600
C1689       C  0.59350584  0.59377714  0.86509268    -0.02700
C1690       C  0.59439202  0.61765933  0.88714856     0.07000
C1691       C  0.61904536  0.61922497  0.90815577    -0.02800
C1692       C  0.64254380  0.59704452  0.90706491    -0.02800
C1693       C  0.64135576  0.57292388  0.88521508     0.07100
C1694       C  0.61692389  0.57156089  0.86404441    -0.03000
Br1695     Br  0.61416152  0.53835679  0.83443657    -0.01600
Br1696     Br  0.55920900  0.58980226  0.83732253    -0.01600
Br1697     Br  0.67722048  0.60119763  0.93456207    -0.01600
Br1698     Br  0.62182948  0.65240207  0.93777773    -0.01600
C1699       C  0.41253911  0.59529372  0.90281922    -0.02700
C1700       C  0.41424213  0.57279254  0.87925813     0.07000
C1701       C  0.43618807  0.57651329  0.85522908    -0.02800
C1702       C  0.45656516  0.60171750  0.85527152    -0.02800
C1703       C  0.45802717  0.62154299  0.88123122     0.07100
C1704       C  0.43509057  0.61867673  0.90460859    -0.03000
Br1705     Br  0.43247169  0.64775153  0.93836961    -0.01600
Br1706     Br  0.37781791  0.59624533  0.93134724    -0.01600
Br1707     Br  0.48130449  0.60839913  0.81849052    -0.01600
Br1708     Br  0.44015968  0.54667689  0.82227485    -0.01600
C1709       C  0.44042686  0.61646598  0.11832567    -0.02700
C1710       C  0.46426793  0.61780863  0.09577746     0.07000
C1711       C  0.46274593  0.59799533  0.06990723    -0.02800
C1712       C  0.43818731  0.57684980  0.06688677    -0.02800
C1713       C  0.41546993  0.57404641  0.09050183     0.07100
C1714       C  0.41583030  0.59538607  0.11524701    -0.03000
Br1715     Br  0.38109429  0.59860670  0.14369840    -0.01600
Br1716     Br  0.44022787  0.64384349  0.15356864    -0.01600
Br1717     Br  0.43631405  0.55280763  0.02938984    -0.01600
Br1718     Br  0.49544812  0.59764159  0.03901559    -0.01600
C1719       C  0.64762800  0.59555813  0.08370589    -0.02700
C1720       C  0.64486904  0.57083264  0.10444508     0.07000
C1721       C  0.61940286  0.56963478  0.12501498    -0.02800
C1722       C  0.59691175  0.59290935  0.12480260    -0.02800
C1723       C  0.59998433  0.61776666  0.10430062     0.07100
C1724       C  0.62558413  0.61913951  0.08396373    -0.03000
Br1725     Br  0.63153101  0.65393965  0.05706396    -0.01600
Br1726     Br  0.68192094  0.59806744  0.05503916    -0.01600
Br1727     Br  0.56075733  0.58926653  0.15118142    -0.01600
Br1728     Br  0.61368263  0.53501232  0.15194814    -0.01600
C1729       C  0.65017799  0.41277645  0.08471085    -0.02700
C1730       C  0.65223288  0.43424736  0.10928121     0.07000
C1731       C  0.63245709  0.43075588  0.13524859    -0.02800
C1732       C  0.60873990  0.40864851  0.13501662    -0.02800
C1733       C  0.60583186  0.38815387  0.10985633     0.07100
C1734       C  0.62766083  0.38938375  0.08546373    -0.03000
Br1735     Br  0.62815938  0.35823603  0.05347053    -0.01600
Br1736     Br  0.67851891  0.41396661  0.04990819    -0.01600
Br1737     Br  0.57911618  0.40873902  0.16888353    -0.01600
Br1738     Br  0.63621551  0.45632963  0.17163127    -0.01600
C1739       C  0.60194572  0.91938800  0.41177793    -0.02700
C1740       C  0.60317551  0.89716171  0.38799492     0.07000
C1741       C  0.62610520  0.87399466  0.38866823    -0.02800
C1742       C  0.64875887  0.87440798  0.41158606    -0.02800
C1743       C  0.64772402  0.89695383  0.43500526     0.07100
C1744       C  0.62364606  0.91873999  0.43560201    -0.03000
Br1745     Br  0.61885098  0.94639773  0.47027481    -0.01600
Br1746     Br  0.56950967  0.94984255  0.41324487    -0.01600
Br1747     Br  0.68258415  0.84533572  0.40904852    -0.01600
Br1748     Br  0.62771024  0.84170294  0.35797763    -0.01600
C1749       C  0.59689739  0.88474806  0.58284943    -0.02700
C1750       C  0.59812456  0.90378117  0.60909731     0.07000
C1751       C  0.62274707  0.92498656  0.61238965    -0.02800
C1752       C  0.64633481  0.92662393  0.58986279    -0.02800
C1753       C  0.64589200  0.90632789  0.56445307     0.07100
C1754       C  0.62057704  0.88613120  0.56056715    -0.03000
Br1755     Br  0.61672120  0.86205426  0.52329284    -0.01600
Br1756     Br  0.56183049  0.85788913  0.57621700    -0.01600
Br1757     Br  0.67902090  0.95670392  0.59428451    -0.01600
Br1758     Br  0.62535601  0.95079787  0.64850144    -0.01600
C1759       C  0.44020351  0.87156795  0.60590660    -0.02700
C1760       C  0.46368187  0.89428241  0.60446326     0.07000
C1761       C  0.46581931  0.91343807  0.57846182    -0.02800
C1762       C  0.44342440  0.91135421  0.55524264    -0.02800
C1763       C  0.41863294  0.89032777  0.55798692     0.07100
C1764       C  0.41802624  0.86937511  0.58259947    -0.03000
Br1765     Br  0.38732645  0.83698507  0.58459826    -0.01600
Br1766     Br  0.43765111  0.84314279  0.63980847    -0.01600
Br1767     Br  0.44865666  0.93487474  0.51800981    -0.01600
Br1768     Br  0.50084765  0.94066031  0.57313199    -0.01600
C1769       C  0.16368397  0.60351993  0.39168464    -0.02700
C1770       C  0.13917473  0.60532710  0.41353797     0.07000
C1771       C  0.11606772  0.58217031  0.41366000    -0.02800
C1772       C  0.11700777  0.55813571  0.39184548    -0.02800
C1773       C  0.14073519  0.55717215  0.36923325     0.07100
C1774       C  0.16466770  0.57948185  0.36996300    -0.03000
Br1775     Br  0.19814575  0.57921772  0.33989230    -0.01600
Br1776     Br  0.19536896  0.63505149  0.38932781    -0.01600
Br1777     Br  0.08658277  0.52544653  0.39449577    -0.01600
Br1778     Br  0.08339494  0.58206101  0.44427985    -0.01600
C1779       C  0.15693422  0.61184410  0.57015055    -0.02700
C1780       C  0.13260044  0.61383118  0.54859137     0.07000
C1781       C  0.10655472  0.59408435  0.55206678    -0.02800
C1782       C  0.10626005  0.57107813  0.57468666    -0.02800
C1783       C  0.13072025  0.56896209  0.59582305     0.07100
C1784       C  0.15550009  0.59019770  0.59401163    -0.03000
Br1785     Br  0.18727459  0.59099027  0.62501883    -0.01600
Br1786     Br  0.19236540  0.63919122  0.56856486    -0.01600
Br1787     Br  0.07295894  0.54115186  0.57476681    -0.01600
Br1788     Br  0.07067737  0.59725557  0.52607846    -0.01600
C1789       C  0.14778217  0.42063778  0.54508958    -0.02700
C1790       C  0.13271610  0.39224476  0.54914972     0.07000
C1791       C  0.11413527  0.38715984  0.57553545    -0.02800
C1792       C  0.11303427  0.40935200  0.59894960    -0.02800
C1793       C  0.12987303  0.43682483  0.59557157     0.07100
C1794       C  0.14641880  0.44291675  0.56828495    -0.03000
Br1795     Br  0.16563600  0.48258021  0.56181054    -0.01600
Br1796     Br  0.16781524  0.43038727  0.50670179    -0.01600
Br1797     Br  0.08919311  0.40165623  0.63588868    -0.01600
Br1798     Br  0.08993070  0.35020582  0.58001456    -0.01600
C1799       C  0.45317325  0.12721760  0.60885811    -0.02700
C1800       C  0.47553564  0.10365058  0.61026290     0.07000
C1801       C  0.47530817  0.08001208  0.58793062    -0.02800
C1802       C  0.45141838  0.07846177  0.56611583    -0.02800
C1803       C  0.42754776  0.10061205  0.56643296     0.07100
C1804       C  0.42920746  0.12551506  0.58735129    -0.03000
Br1805     Br  0.39875231  0.15786106  0.58720377    -0.01600
Br1806     Br  0.45503369  0.16267238  0.63582340    -0.01600
Br1807     Br  0.45339497  0.04762692  0.53405114    -0.01600
Br1808     Br  0.50964780  0.05180402  0.58482182    -0.01600
C1809       C  0.65648603  0.08221081  0.59540430    -0.02700
C1810       C  0.65526013  0.10330385  0.57091477     0.07000
C1811       C  0.63227973  0.12648273  0.57117333    -0.02800
C1812       C  0.60835892  0.12560965  0.59298785    -0.02800
C1813       C  0.60883790  0.10364008  0.61657606     0.07100
C1814       C  0.63318009  0.08223652  0.61809464    -0.03000
Br1815     Br  0.63557178  0.05347706  0.65161724    -0.01600
Br1816     Br  0.69188473  0.05573228  0.60041039    -0.01600
Br1817     Br  0.57378696  0.15361498  0.58882186    -0.01600
Br1818     Br  0.63332210  0.16120571  0.54357403    -0.01600
C1819       C  0.62300704  0.10487105  0.44190517    -0.02700
C1820       C  0.65043224  0.08821648  0.43737530     0.07000
C1821       C  0.65488729  0.07102531  0.41013902    -0.02800
C1822       C  0.63309850  0.07314101  0.38645658    -0.02800
C1823       C  0.60749761  0.09306162  0.38994598     0.07100
C1824       C  0.60231047  0.10852107  0.41792616    -0.03000
Br1825     Br  0.56623916  0.13388780  0.42447827    -0.01600
Br1826     Br  0.61177955  0.11960657  0.48209145    -0.01600
Br1827     Br  0.63933184  0.04981083  0.34902280    -0.01600
Br1828     Br  0.69051601  0.04477703  0.40497165    -0.01600
C1829       C  0.94902319  0.39542304  0.57416213    -0.02700
C1830       C  0.92561018  0.39314711  0.55165706     0.07000
C1831       C  0.90070580  0.41419381  0.55250196    -0.02800
C1832       C  0.89981770  0.43774404  0.57462213    -0.02800
C1833       C  0.92226838  0.43902259  0.59788862     0.07100
C1834       C  0.94665204  0.41743736  0.59781457    -0.03000
Br1835     Br  0.97621571  0.41634467  0.63097506    -0.01600
Br1836     Br  0.98440496  0.36816476  0.57398695    -0.01600
Br1837     Br  0.86888027  0.46957809  0.57106618    -0.01600
Br1838     Br  0.86768817  0.41227575  0.52307192    -0.01600
C1839       C  0.88865542  0.60028981  0.55656381    -0.02700
C1840       C  0.91407174  0.62075710  0.55469643     0.07000
C1841       C  0.93747141  0.61970393  0.57708482    -0.02800
C1842       C  0.93730720  0.59635484  0.59903350    -0.02800
C1843       C  0.91291358  0.57450572  0.59972133     0.07100
C1844       C  0.88750730  0.57797835  0.57967825    -0.03000
Br1845     Br  0.85041233  0.55298247  0.58306795    -0.01600
Br1846     Br  0.85559704  0.60111008  0.52688729    -0.01600
Br1847     Br  0.97005739  0.59652156  0.62922942    -0.01600
Br1848     Br  0.96913619  0.65134287  0.57956386    -0.01600
C1849       C  0.94751426  0.61747191  0.39641650    -0.02700
C1850       C  0.92267824  0.61890574  0.41796021     0.07000
C1851       C  0.89747111  0.59836735  0.41459043    -0.02800
C1852       C  0.89705461  0.57674906  0.39043406    -0.02800
C1853       C  0.92309127  0.57337527  0.37054126     0.07100
C1854       C  0.94802787  0.59456854  0.37331405    -0.03000
Br1855     Br  0.98256987  0.59428586  0.34447091    -0.01600
Br1856     Br  0.98059169  0.64769943  0.39689397    -0.01600
Br1857     Br  0.85978863  0.55236698  0.38554673    -0.01600
Br1858     Br  0.86368814  0.59766166  0.44414856    -0.01600
C1859       C  0.36855785  0.91307142  0.67317521    -0.02700
C1860       C  0.36533546  0.89534878  0.70047743     0.07000
C1861       C  0.33548896  0.88223653  0.70597181    -0.02800
C1862       C  0.31300303  0.88081887  0.68214478    -0.02800
C1863       C  0.32015876  0.89131124  0.65190066     0.07100
C1864       C  0.34685276  0.91063922  0.64917989    -0.03000
Br1865     Br  0.35282990  0.93783424  0.61423316    -0.01600
Br1866     Br  0.40065248  0.94443266  0.66930255    -0.01600
Br1867     Br  0.27058468  0.87195971  0.69395256    -0.01600
Br1868     Br  0.32170834  0.87290981  0.74735500    -0.01600
C1869       C  0.74365646  0.31934276  0.90397426    -0.02700
C1870       C  0.73523609  0.35076798  0.90446462     0.07000
C1871       C  0.70391223  0.35769509  0.91177277    -0.02800
C1872       C  0.68087553  0.33432257  0.91156752    -0.02800
C1873       C  0.68878774  0.30355571  0.90489871     0.07100
C1874       C  0.72069837  0.29607419  0.90457412    -0.03000
Br1875     Br  0.73322339  0.25383076  0.90858108    -0.01600
Br1876     Br  0.78679370  0.30772216  0.90576275    -0.01600
Br1877     Br  0.63889114  0.34472888  0.92182162    -0.01600
Br1878     Br  0.69186536  0.39841960  0.92387387    -0.01600
C1879       C  0.87452394  0.83114400  0.62295468    -0.02700
C1880       C  0.87000024  0.80509043  0.60351413     0.07000
C1881       C  0.83978959  0.80110294  0.59122091    -0.02800
C1882       C  0.81808874  0.82544096  0.59213345    -0.02800
C1883       C  0.82504515  0.85330393  0.60728486     0.07100
C1884       C  0.85308302  0.85564681  0.62328776    -0.03000
Br1885     Br  0.86168021  0.89243504  0.64659896    -0.01600
Br1886     Br  0.90559252  0.83100853  0.65464260    -0.01600
Br1887     Br  0.77833396  0.82033126  0.57297565    -0.01600
Br1888     Br  0.82537825  0.76105695  0.57804094    -0.01600
C1889       C  0.89963864  0.68065235  0.63200916    -0.02700
C1890       C  0.92117620  0.70504490  0.63448513     0.07000
C1891       C  0.94249763  0.70476927  0.65875693    -0.02800
C1892       C  0.94156150  0.68119996  0.68095456    -0.02800
C1893       C  0.91886745  0.65780945  0.67962539     0.07100
C1894       C  0.89832242  0.65733552  0.65456595    -0.03000
Br1895     Br  0.86739211  0.62540505  0.65198660    -0.01600
Br1896     Br  0.87108766  0.67990529  0.59827518    -0.01600
Br1897     Br  0.96990057  0.68278256  0.71466111    -0.01600
Br1898     Br  0.97114533  0.73847115  0.66339063    -0.01600
C1899       C  0.86312873  0.84434616  0.36653682    -0.02700
C1900       C  0.83683473  0.84088734  0.38646650     0.07000
C1901       C  0.83148652  0.81100777  0.39876252    -0.02800
C1902       C  0.85447810  0.78799181  0.39601892    -0.02800
C1903       C  0.88261304  0.79387395  0.38036890     0.07100
C1904       C  0.88665827  0.82203069  0.36548875    -0.03000
Br1905     Br  0.92459247  0.82973252  0.34289417    -0.01600
Br1906     Br  0.86554685  0.87622636  0.33591506    -0.01600
Br1907     Br  0.84696981  0.74774568  0.41285669    -0.01600
Br1908     Br  0.79123506  0.79859144  0.41438544    -0.01600
C1909       C  0.75488925  0.90148714  0.31550268    -0.02700
C1910       C  0.74670865  0.90407692  0.34695358     0.07000
C1911       C  0.71631577  0.91417341  0.35382562    -0.02800
C1912       C  0.69393136  0.91623715  0.33037200    -0.02800
C1913       C  0.70013062  0.90408040  0.30038625     0.07100
C1914       C  0.73195507  0.90091370  0.29251404    -0.03000
Br1915     Br  0.74562142  0.90156619  0.25032826    -0.01600
Br1916     Br  0.79787182  0.90491741  0.30343474    -0.01600
Br1917     Br  0.65855927  0.94267949  0.33831638    -0.01600
Br1918     Br  0.70500563  0.92813705  0.39422577    -0.01600
C1919       C  0.66762539  0.83838986  0.80470772    -0.02700
C1920       C  0.63858536  0.85164039  0.79686775     0.07000
C1921       C  0.61377244  0.84754144  0.81820156    -0.02800
C1922       C  0.61621897  0.82615871  0.84197071    -0.02800
C1923       C  0.64184001  0.80567008  0.84300529     0.07100
C1924       C  0.66897965  0.81453860  0.82666644    -0.03000
Br1925     Br  0.70932744  0.79986557  0.83864153    -0.01600
Br1926     Br  0.70654682  0.85731964  0.79243051    -0.01600
Br1927     Br  0.58585772  0.82877900  0.87541209    -0.01600
Br1928     Br  0.57704190  0.87338216  0.81830686    -0.01600
C1929       C  0.70629190  0.91976108  0.70598515    -0.02700
C1930       C  0.67864238  0.90383097  0.69976274     0.07000
C1931       C  0.67728997  0.88449660  0.67385810    -0.02800
C1932       C  0.70285246  0.88207383  0.65357266    -0.02800
C1933       C  0.72964512  0.90075758  0.65784309     0.07100
C1934       C  0.73221490  0.91674849  0.68629702    -0.03000
Br1935     Br  0.77220619  0.92777666  0.70294196    -0.01600
Br1936     Br  0.70958125  0.94408085  0.74298374    -0.01600
Br1937     Br  0.70239213  0.84892661  0.62374287    -0.01600
Br1938     Br  0.64065764  0.85987136  0.66729572    -0.01600
C1939       C  0.84168145  0.38932626  0.78646139    -0.02700
C1940       C  0.87116170  0.40309590  0.79102592     0.07000
C1941       C  0.87437044  0.42180631  0.81765123    -0.02800
C1942       C  0.85302154  0.41943316  0.84224573    -0.02800
C1943       C  0.82748739  0.39837203  0.84085547     0.07100
C1944       C  0.82011290  0.38686659  0.81114325    -0.03000
Br1945     Br  0.77822975  0.37461987  0.80119142    -0.01600
Br1946     Br  0.82679453  0.38136656  0.74530367    -0.01600
Br1947     Br  0.85656799  0.45016571  0.87478098    -0.01600
Br1948     Br  0.90469914  0.45507259  0.81889127    -0.01600
C1949       C  0.91109028  0.33884324  0.64390678    -0.02700
C1950       C  0.92941056  0.31195984  0.64818757     0.07000
C1951       C  0.94045260  0.30659744  0.67854716    -0.02800
C1952       C  0.93898470  0.32992278  0.70116717    -0.02800
C1953       C  0.92492874  0.35815466  0.69480954     0.07100
C1954       C  0.91017681  0.36216067  0.66654492    -0.03000
Br1955     Br  0.88592595  0.39866922  0.66020107    -0.01600
Br1956     Br  0.88160366  0.34215401  0.61081599    -0.01600
Br1957     Br  0.95436584  0.32256937  0.74203880    -0.01600
Br1958     Br  0.95239007  0.26624435  0.69241565    -0.01600
C1959       C  0.84215682  0.64644417  0.82678064    -0.02700
C1960       C  0.81733476  0.62498202  0.82609853     0.07000
C1961       C  0.80929315  0.61375028  0.79651934    -0.02800
C1962       C  0.83114767  0.61482631  0.77207687    -0.02800
C1963       C  0.86130831  0.62666330  0.77718055     0.07100
C1964       C  0.86437023  0.64696483  0.80258675    -0.03000
Br1965     Br  0.89488655  0.67956979  0.80161217    -0.01600
Br1966     Br  0.84187565  0.67977706  0.85632910    -0.01600
Br1967     Br  0.81785632  0.60501198  0.73084227    -0.01600
Br1968     Br  0.76720531  0.60149397  0.78774485    -0.01600
C1969       C  0.69653197  0.65421229  0.86945301    -0.02700
C1970       C  0.72317532  0.65563233  0.88792563     0.07000
C1971       C  0.72676119  0.68060075  0.90843649    -0.02800
C1972       C  0.70406332  0.70372791  0.91051181    -0.02800
C1973       C  0.67834408  0.70313189  0.89090315     0.07100
C1974       C  0.67441743  0.67802986  0.87066983    -0.03000
Br1975     Br  0.63951895  0.67718123  0.84344809    -0.01600
Br1976     Br  0.69146704  0.62056851  0.84095422    -0.01600
Br1977     Br  0.70966413  0.73768117  0.93856019    -0.01600
Br1978     Br  0.76459571  0.68580174  0.93078416    -0.01600
C1979       C  0.44055211  0.80259464  0.81427618    -0.02700
C1980       C  0.42294743  0.80545666  0.84169828     0.07000
C1981       C  0.40640587  0.83301213  0.84682669    -0.02800
C1982       C  0.40643984  0.85663608  0.82440117    -0.02800
C1983       C  0.42298073  0.85315859  0.79634496     0.07100
C1984       C  0.44041073  0.82608697  0.79177853    -0.03000
Br1985     Br  0.46259710  0.82022820  0.75361117    -0.01600
Br1986     Br  0.46383924  0.76564471  0.80680517    -0.01600
Br1987     Br  0.38279967  0.89346415  0.83159934    -0.01600
Br1988     Br  0.38303600  0.83800251  0.88446622    -0.01600
C1989       C  0.37378961  0.68301971  0.85961800    -0.02700
C1990       C  0.37033763  0.70710284  0.88186018     0.07000
C1991       C  0.34166934  0.70760785  0.89856735    -0.02800
C1992       C  0.32053938  0.68248587  0.89681518    -0.02800
C1993       C  0.32719350  0.65625463  0.87869012     0.07100
C1994       C  0.35365558  0.65721970  0.85951564    -0.03000
Br1995     Br  0.36130344  0.62350518  0.83146981    -0.01600
Br1996     Br  0.40257921  0.68695362  0.82541729    -0.01600
Br1997     Br  0.28045028  0.68560660  0.91649014    -0.01600
Br1998     Br  0.32706443  0.74457729  0.91875286    -0.01600
C1999       C  0.81412117  0.61735579  0.17961455    -0.02700
C2000       C  0.82135780  0.62992609  0.15040622     0.07000
C2001       C  0.84834568  0.64817109  0.14843790    -0.02800
C2002       C  0.87196749  0.64426031  0.17022992    -0.02800
C2003       C  0.86868316  0.62136934  0.19327471     0.07100
C2004       C  0.83784029  0.61300831  0.20110200    -0.03000
Br2005     Br  0.82666242  0.60035721  0.24229471    -0.01600
Br2006     Br  0.77167142  0.60839221  0.19127896    -0.01600
Br2007     Br  0.90512760  0.67424548  0.17172959    -0.01600
Br2008     Br  0.84962652  0.68299297  0.12116159    -0.01600
C2009       C  0.35386416  0.66220383  0.06444782    -0.02700
C2010       C  0.32648576  0.66299161  0.08280754     0.07000
C2011       C  0.31902660  0.69179662  0.09668362    -0.02800
C2012       C  0.34188662  0.71517289  0.09953370    -0.02800
C2013       C  0.37259515  0.71013466  0.08866132     0.07100
C2014       C  0.37672557  0.68517231  0.06752889    -0.03000
Br2015     Br  0.41183324  0.68348667  0.03904034    -0.01600
Br2016     Br  0.35873465  0.63249337  0.03121085    -0.01600
Br2017     Br  0.32824468  0.75595456  0.11103494    -0.01600
Br2018     Br  0.27634842  0.70286999  0.10527417    -0.01600
C2019       C  0.42655617  0.78998491  0.17639631    -0.02700
C2020       C  0.43216954  0.79911690  0.14557057     0.07000
C2021       C  0.44520483  0.82869183  0.14108739    -0.02800
C2022       C  0.44828791  0.84937546  0.16606392    -0.02800
C2023       C  0.43396955  0.84310223  0.19507836     0.07100
C2024       C  0.42666818  0.81176248  0.20081570    -0.03000
Br2025     Br  0.42199743  0.79659592  0.24227419    -0.01600
Br2026     Br  0.42414640  0.74670127  0.18610744    -0.01600
Br2027     Br  0.47730226  0.88329000  0.16109047    -0.01600
Br2028     Br  0.46035711  0.84193667  0.10156682    -0.01600
C2029       C  0.15613800  0.35424859  0.65943057    -0.02700
C2030       C  0.13321445  0.35382225  0.68280620     0.07000
C2031       C  0.10917249  0.33184725  0.68103039    -0.02800
C2032       C  0.11028498  0.30834262  0.65837906    -0.02800
C2033       C  0.13513277  0.30702990  0.63693983     0.07100
C2034       C  0.15710807  0.33101385  0.63672293    -0.03000
Br2035     Br  0.18882377  0.33181560  0.60522029    -0.01600
Br2036     Br  0.18596440  0.38725387  0.65815426    -0.01600
Br2037     Br  0.07869900  0.27704082  0.65811869    -0.01600
Br2038     Br  0.07521394  0.33330067  0.71008903    -0.01600
C2039       C  0.21889195  0.37788562  0.77372964    -0.02700
C2040       C  0.19033122  0.39277814  0.77979283     0.07000
C2041       C  0.18858435  0.41062433  0.80713710    -0.02800
C2042       C  0.21097758  0.40764528  0.83038660    -0.02800
C2043       C  0.23643098  0.38657417  0.82728796     0.07100
C2044       C  0.24068241  0.37298046  0.79752194    -0.03000
Br2045     Br  0.27763430  0.35085643  0.78579497    -0.01600
Br2046     Br  0.23342481  0.37380096  0.73164312    -0.01600
Br2047     Br  0.20706685  0.43615096  0.86492117    -0.01600
Br2048     Br  0.15798367  0.44323351  0.81142939    -0.01600
C2049       C  0.67582733  0.16320160  0.81989892    -0.02700
C2050       C  0.65657003  0.16630690  0.79383959     0.07000
C2051       C  0.64472302  0.19608606  0.78840273    -0.02800
C2052       C  0.64377172  0.21825300  0.81229470    -0.02800
C2053       C  0.65448573  0.21092765  0.84217668     0.07100
C2054       C  0.67465995  0.18524019  0.84399564    -0.03000
Br2055     Br  0.70526262  0.18258243  0.87598278    -0.01600
Br2056     Br  0.70848845  0.13280630  0.82015727    -0.01600
Br2057     Br  0.63140483  0.25966601  0.80221138    -0.01600
Br2058     Br  0.63341204  0.20829126  0.74732374    -0.01600
C2059       C  0.71385012  0.12504090  0.34480185    -0.02700
C2060       C  0.74155132  0.10794423  0.34020892     0.07000
C2061       C  0.74664016  0.09467914  0.31071421    -0.02800
C2062       C  0.72201359  0.09205872  0.28979686    -0.02800
C2063       C  0.69299898  0.10526103  0.29668503     0.07100
C2064       C  0.68929259  0.12225160  0.32399801    -0.03000
Br2065     Br  0.65077960  0.14327328  0.33212160    -0.01600
Br2066     Br  0.71103147  0.15726303  0.37555504    -0.01600
Br2067     Br  0.72836324  0.07142159  0.25091290    -0.01600
Br2068     Br  0.78820932  0.08669648  0.29569997    -0.01600
C2069       C  0.82787126  0.18287962  0.39056289    -0.02700
C2070       C  0.83483887  0.15175056  0.39648614     0.07000
C2071       C  0.86545733  0.14527577  0.40588083    -0.02800
C2072       C  0.88901590  0.16797412  0.40371132    -0.02800
C2073       C  0.88342766  0.19659419  0.38886302     0.07100
C2074       C  0.85167848  0.20496469  0.38655282    -0.03000
Br2075     Br  0.83925557  0.24743787  0.38386654    -0.01600
Br2076     Br  0.78533061  0.19659452  0.39351967    -0.01600
Br2077     Br  0.92594833  0.16159008  0.42799672    -0.01600
Br2078     Br  0.87578363  0.10718675  0.42519795    -0.01600
C2079       C  0.20698678  0.79592616  0.56844149    -0.02700
C2080       C  0.17886086  0.79851969  0.58504745     0.07000
C2081       C  0.17403749  0.82483016  0.60360542    -0.02800
C2082       C  0.19752145  0.84743129  0.60656247    -0.02800
C2083       C  0.22656576  0.84354275  0.59189167     0.07100
C2084       C  0.23100424  0.81773874  0.57255531    -0.03000
Br2085     Br  0.27072501  0.81092913  0.55327482    -0.01600
Br2086     Br  0.21286905  0.76210816  0.54031627    -0.01600
Br2087     Br  0.19014165  0.88371515  0.63106794    -0.01600
Br2088     Br  0.13518325  0.82982637  0.62513183    -0.01600
C2089       C  0.71062738  0.34765040  0.13007498    -0.02700
C2090       C  0.72954340  0.35089580  0.10309665     0.07000
C2091       C  0.71956368  0.33425415  0.07638821    -0.02800
C2092       C  0.69789975  0.31002401  0.07907011    -0.02800
C2093       C  0.68045917  0.30617620  0.10619831     0.07100
C2094       C  0.68523494  0.32699809  0.13061821    -0.03000
Br2095     Br  0.65533893  0.32862299  0.16396500    -0.01600
Br2096     Br  0.71764447  0.37198475  0.16672733    -0.01600
Br2097     Br  0.69314173  0.28172366  0.04520162    -0.01600
Br2098     Br  0.72734731  0.34752009  0.03462025    -0.01600
C2099       C  0.84661395  0.36610233  0.15750216    -0.02700
C2100       C  0.82909525  0.39331169  0.15329614     0.07000
C2101       C  0.83692343  0.41921970  0.17134015    -0.02800
C2102       C  0.86148028  0.41815157  0.19284518    -0.02800
C2103       C  0.87768961  0.39046567  0.19859096     0.07100
C2104       C  0.86979087  0.36437540  0.18041978    -0.03000
Br2105     Br  0.89285078  0.32657768  0.18419529    -0.01600
Br2106     Br  0.84188396  0.33201874  0.12917901    -0.01600
Br2107     Br  0.87180290  0.45528899  0.21454392    -0.01600
Br2108     Br  0.81283471  0.45619044  0.16808721    -0.01600
C2109       C  0.67834506  0.68259568  0.11933661    -0.02700
C2110       C  0.68070833  0.70775835  0.09908324     0.07000
C2111       C  0.70288701  0.70649766  0.07504354    -0.02800
C2112       C  0.72400238  0.68175445  0.07282004    -0.02800
C2113       C  0.72368722  0.65815693  0.09493352     0.07100
C2114       C  0.69982090  0.65812810  0.11743531    -0.03000
Br2115     Br  0.69687840  0.62453743  0.14596906    -0.01600
Br2116     Br  0.64536333  0.68149740  0.14951721    -0.01600
Br2117     Br  0.75448161  0.68132505  0.04029283    -0.01600
Br2118     Br  0.70587300  0.73973769  0.04619482    -0.01600
C2119       C  0.62098258  0.84081241  0.19505806    -0.02700
C2120       C  0.65021130  0.85305254  0.20329423     0.07000
C2121       C  0.67621900  0.84343853  0.18533910    -0.02800
C2122       C  0.67338876  0.82036329  0.16226330    -0.02800
C2123       C  0.64414057  0.80702455  0.15547109     0.07100
C2124       C  0.61787062  0.82158130  0.16911169    -0.03000
Br2125     Br  0.57851179  0.82388341  0.14817166    -0.01600
Br2126     Br  0.58425835  0.84704186  0.21980156    -0.01600
Br2127     Br  0.70946874  0.81082988  0.13718045    -0.01600
Br2128     Br  0.71587555  0.86313526  0.18975553    -0.01600
C2129       C  0.10676516  0.66440480  0.66884993    -0.02700
C2130       C  0.13511770  0.65421649  0.68120272     0.07000
C2131       C  0.16298332  0.66536900  0.66707369    -0.02800
C2132       C  0.16226084  0.68798563  0.64378355    -0.02800
C2133       C  0.13369695  0.69975695  0.63313851     0.07100
C2134       C  0.10641440  0.68389599  0.64297470    -0.03000
Br2135     Br  0.06998074  0.68141237  0.61745216    -0.01600
Br2136     Br  0.06747532  0.65504598  0.68822984    -0.01600
Br2137     Br  0.20120649  0.69948788  0.62423351    -0.01600
Br2138     Br  0.20329959  0.64941438  0.67767653    -0.01600
C2139       C  0.18553497  0.63778498  0.80231136    -0.02700
C2140       C  0.18612472  0.61659128  0.77749405     0.07000
C2141       C  0.21568073  0.60379899  0.76970926    -0.02800
C2142       C  0.23972080  0.60389016  0.79138213    -0.02800
C2143       C  0.23469779  0.61691440  0.82080247     0.07100
C2144       C  0.20995774  0.63823618  0.82364302    -0.03000
Br2145     Br  0.21161147  0.67139999  0.85342687    -0.01600
Br2146     Br  0.15451393  0.66968151  0.80480570    -0.01600
Br2147     Br  0.28092605  0.59150886  0.77831131    -0.01600
Br2148     Br  0.22600256  0.58980562  0.72841660    -0.01600
C2149       C  0.34327661  0.08018908  0.65634013    -0.02700
C2150       C  0.32927631  0.10709143  0.64539301     0.07000
C2151       C  0.34386223  0.13580703  0.65177018    -0.02800
C2152       C  0.36817970  0.13765756  0.67324125    -0.02800
C2153       C  0.37955552  0.11055392  0.68698271     0.07100
C2154       C  0.37058350  0.08221224  0.67335368    -0.03000
Br2155     Br  0.39795599  0.04704135  0.67251199    -0.01600
Br2156     Br  0.32419985  0.04030049  0.65191008    -0.01600
Br2157     Br  0.38786067  0.17704527  0.67990012    -0.01600
Br2158     Br  0.33237394  0.17285231  0.63010930    -0.01600
C2159       C  0.39354355  0.16493938  0.80447247    -0.02700
C2160       C  0.42163944  0.15622988  0.78929617     0.07000
C2161       C  0.44976997  0.16589993  0.80268591    -0.02800
C2162       C  0.44972319  0.18243942  0.83058548    -0.02800
C2163       C  0.42224146  0.19663017  0.84191895     0.07100
C2164       C  0.39389034  0.18498679  0.83037748    -0.03000
Br2165     Br  0.35562178  0.19179707  0.85284517    -0.01600
Br2166     Br  0.35404400  0.14800976  0.79204250    -0.01600
Br2167     Br  0.48590664  0.17822387  0.85618100    -0.01600
Br2168     Br  0.48923052  0.15992760  0.78227159    -0.01600
C2169       C  0.73779532  0.09133354  0.67235466    -0.02700
C2170       C  0.73777644  0.11359741  0.64881820     0.07000
C2171       C  0.71208767  0.13351408  0.64703141    -0.02800
C2172       C  0.68828381  0.13289988  0.66981769    -0.02800
C2173       C  0.68948782  0.11210605  0.69462823     0.07100
C2174       C  0.71379327  0.09047815  0.69488372    -0.03000
Br2175     Br  0.71511012  0.06034477  0.72701991    -0.01600
Br2176     Br  0.77175166  0.06299196  0.67514940    -0.01600
Br2177     Br  0.65379477  0.16062684  0.66712916    -0.01600
Br2178     Br  0.70942191  0.16148446  0.61301937    -0.01600
C2179       C  0.85025568  0.17859115  0.63331141    -0.02700
C2180       C  0.83856815  0.16565095  0.60575426     0.07000
C2181       C  0.85488029  0.17347292  0.57819593    -0.02800
C2182       C  0.87336330  0.20009690  0.57665251    -0.02800
C2183       C  0.88399848  0.21432707  0.60377757     0.07100
C2184       C  0.87369199  0.20159342  0.63232045    -0.03000
Br2185     Br  0.89337309  0.21251877  0.67058002    -0.01600
Br2186     Br  0.83796237  0.16234960  0.67291844    -0.01600
Br2187     Br  0.88069995  0.21759258  0.53660768    -0.01600
Br2188     Br  0.85984835  0.14451473  0.54452338    -0.01600
C2189       C  0.13842329  0.70329224  0.28631943    -0.02700
C2190       C  0.13503560  0.69560879  0.31778665     0.07000
C2191       C  0.12258961  0.66597616  0.32409679    -0.02800
C2192       C  0.12540378  0.64219275  0.30222034    -0.02800
C2193       C  0.13537156  0.64860938  0.27193192     0.07100
C2194       C  0.13838446  0.67992891  0.26354790    -0.03000
Br2195     Br  0.13798130  0.69143688  0.22071257    -0.01600
Br2196     Br  0.13756238  0.74571990  0.27352304    -0.01600
Br2197     Br  0.11460646  0.60141667  0.31478825    -0.01600
Br2198     Br  0.09483175  0.65895268  0.35883319    -0.01600
C2199       C  0.21774422  0.78342400  0.38007756    -0.02700
C2200       C  0.18884844  0.79013264  0.36692940     0.07000
C2201       C  0.18521569  0.81864200  0.35235394    -0.02800
C2202       C  0.20932444  0.84085408  0.35256833    -0.02800
C2203       C  0.23663006  0.83614660  0.37013727     0.07100
C2204       C  0.24183850  0.80564582  0.38048132    -0.03000
Br2205     Br  0.28312436  0.79213145  0.39046913    -0.01600
Br2206     Br  0.22455087  0.74330787  0.39722407    -0.01600
Br2207     Br  0.20719199  0.87331626  0.32251864    -0.01600
Br2208     Br  0.14728716  0.82671048  0.33087744    -0.01600
loop_ 
_geom_bond_atom_site_label_1 
_geom_bond_atom_site_label_2 
_geom_bond_distance 
_geom_bond_site_symmetry_2 
_ccdc_geom_bond_type 
C1            C2   1.536       .  S
C1            C7   1.550       .  S
C1            C5   1.525       .  S
C1         C2190   1.546       .  S
C2            H9   1.083       .  S
C2            C3   1.358       .  D
C3            C4   1.541       .  S
C3          C359   1.473       .  S
C4            C8   1.558       .  S
C4            C6   1.552       .  S
C4           H10   1.111       .  S
C5           H11   1.087       .  S
C5            C6   1.356       .  D
C6          C943   1.475       .  S
C7           H12   1.085       .  S
C7            C8   1.378       .  D
C8         C2200   1.507       .  S
C13          C14   1.534       .  S
C13          C19   1.532       .  S
C13          C17   1.557       .  S
C13        C2180   1.559       .  S
C14          H21   1.086       .  S
C14          C15   1.357       .  D
C15          C16   1.542       .  S
C15         C318   1.465       .  S
C16          C20   1.529       .  S
C16          C18   1.554       .  S
C16          H22   1.109       .  S
C17          H23   1.084       .  S
C17          C18   1.380       .  D
C18        C2170   1.514       .  S
C19          H24   1.082       .  S
C19          C20   1.363       .  D
C20         C861   1.470       .  S
C25          C26   1.542       .  S
C25          C31   1.525       .  S
C25          C29   1.548       .  S
C25        C2153   1.545       .  S
C26          H33   1.086       .  S
C26          C27   1.353       .  D
C27          C28   1.535       .  S
C27         C575   1.467       .  S
C28          C32   1.536       .  S
C28          C30   1.561       .  S
C28          H34   1.108       .  S
C29          H35   1.080       .  S
C29          C30   1.379       .  D
C30        C2160   1.519       .  S
C31          H36   1.085       .  S
C31          C32   1.361       .  D
C32         C329   1.469       .  S
C37          C38   1.532       .  S
C37          C43   1.539       .  S
C37          C41   1.526       .  S
C37        C2140   1.544       .  S
C38          H45   1.086       .  S
C38          C39   1.352       .  D
C39          C40   1.541       .  S
C39         C344   1.469       .  S
C40          C44   1.548       .  S
C40          C42   1.572       .  S
C40          H46   1.108       .  S
C41          H47   1.084       .  S
C41          C42   1.367       .  D
C42        C2130   1.527       .  S
C43          H48   1.084       .  S
C43          C44   1.374       .  D
C44         C664   1.477       .  S
C49          C50   1.541       .  S
C49          C55   1.530       .  S
C49          C53   1.554       .  S
C49        C2123   1.560       .  S
C50          H57   1.084       .  S
C50          C51   1.363       .  D
C51          C52   1.543       .  S
C51         C415   1.476       .  S
C52          C56   1.537       .  S
C52          C54   1.551       .  S
C52          H58   1.110       .  S
C53          H59   1.085       .  S
C53          C54   1.378       .  D
C54        C2110   1.506       .  S
C55          H60   1.087       .  S
C55          C56   1.359       .  D
C56         C495   1.474       .  S
C61          C62   1.544       .  S
C61          C67   1.532       .  S
C61          C65   1.544       .  S
C61        C2090   1.567       .  S
C62          H69   1.078       .  S
C62          C63   1.363       .  D
C63          C64   1.546       .  S
C63         C745   1.490       .  S
C64          C68   1.535       .  S
C64          C66   1.577       .  S
C64          H70   1.109       .  S
C65          H71   1.086       .  S
C65          C66   1.377       .  D
C66        C2100   1.528       .  S
C67          H72   1.085       .  S
C67          C68   1.362       .  D
C68         C399   1.477       .  S
C73          C74   1.526       .  S
C73          C79   1.537       .  S
C73          C77   1.550       .  S
C73        C2133   1.560       .  S
C74          H81   1.086       .  S
C74          C75   1.361       .  D
C75          C76   1.537       .  S
C75         C358   1.469       .  S
C76          C80   1.544       .  S
C76          C78   1.555       .  S
C76          H82   1.109       .  S
C77          H83   1.085       .  S
C77          C78   1.374       .  D
C78        C2080   1.505       .  S
C79          H84   1.085       .  S
C79          C80   1.367       .  D
C80         C849   1.472       .  S
C85          C86   1.535       .  S
C85          C91   1.536       .  S
C85          C89   1.534       .  S
C85        C2060   1.544       .  S
C86          H93   1.086       .  S
C86          C87   1.377       .  D
C87          C88   1.562       .  S
C87        C2070   1.525       .  S
C88          C92   1.522       .  S
C88          C90   1.544       .  S
C88          H94   1.101       .  S
C89          H95   1.085       .  S
C89          C90   1.363       .  D
C90         C928   1.460       .  S
C91          H96   1.084       .  S
C91          C92   1.356       .  D
C92         C315   1.464       .  S
C97          C98   1.538       .  S
C97         C103   1.544       .  S
C97         C101   1.539       .  S
C97        C2050   1.554       .  S
C98         H105   1.086       .  S
C98          C99   1.365       .  D
C99         C100   1.529       .  S
C99         C481   1.464       .  S
C100        C104   1.542       .  S
C100        C102   1.561       .  S
C100        H106   1.108       .  S
C101        H107   1.086       .  S
C101        C102   1.370       .  D
C102       C2173   1.515       .  S
C103        H108   1.086       .  S
C103        C104   1.365       .  D
C104        C332   1.472       .  S
C109        C110   1.537       .  S
C109        C115   1.535       .  S
C109        C113   1.546       .  S
C109       C2040   1.559       .  S
C110        H117   1.084       .  S
C110        C111   1.363       .  D
C111        C112   1.538       .  S
C111        C759   1.470       .  S
C112        C116   1.544       .  S
C112        C114   1.555       .  S
C112        H118   1.109       .  S
C113        H119   1.082       .  S
C113        C114   1.374       .  D
C114       C2030   1.501       .  S
C115        H120   1.087       .  S
C115        C116   1.363       .  D
C116        C345   1.482       .  S
C121        C122   1.536       .  S
C121        C127   1.519       .  S
C121        C125   1.554       .  S
C121       C2013   1.553       .  S
C122        H129   1.087       .  S
C122        C123   1.358       .  D
C123        C124   1.528       .  S
C123        C414   1.468       .  S
C124        C128   1.554       .  S
C124        C126   1.561       .  S
C124        H130   1.103       .  S
C125        H131   1.081       .  S
C125        C126   1.387       .  D
C126       C2020   1.523       .  S
C127        H132   1.088       .  S
C127        C128   1.352       .  D
C128        C560   1.477       .  S
C133        C134   1.544       .  S
C133        C139   1.532       .  S
C133        C137   1.530       .  S
C133       C2000   1.538       .  S
C134        H141   1.085       .  S
C134        C135   1.371       .  D
C135        C136   1.541       .  S
C135        C677   1.483       .  S
C136        C140   1.551       .  S
C136        C138   1.564       .  S
C136        H142   1.106       .  S
C137        H143   1.087       .  S
C137        C138   1.366       .  D
C138       C2113   1.506       .  S
C139        H144   1.087       .  S
C139        C140   1.356       .  D
C140        C402   1.476       .  S
C145        C146   1.551       .  S
C145        C151   1.536       .  S
C145        C149   1.548       .  S
C145       C1990   1.575       .  S
C146        H153   1.082       .  S
C146        C147   1.373       .  D
C147        C148   1.539       .  S
C147        C561   1.481       .  S
C148        C152   1.530       .  S
C148        C150   1.555       .  S
C148        H154   1.108       .  S
C149        H155   1.086       .  S
C149        C150   1.375       .  D
C150       C1980   1.516       .  S
C151        H156   1.086       .  S
C151        C152   1.362       .  D
C152        C427   1.464       .  S
C157        C158   1.545       .  S
C157        C163   1.545       .  S
C157        C161   1.530       .  S
C157       C1960   1.552       .  S
C158        H165   1.086       .  S
C158        C159   1.371       .  D
C159        C160   1.546       .  S
C159        C441   1.486       .  S
C160        C164   1.530       .  S
C160        C162   1.554       .  S
C160        H166   1.109       .  S
C161        H167   1.087       .  S
C161        C162   1.364       .  D
C162       C1970   1.494       .  S
C163        H168   1.086       .  S
C163        C164   1.370       .  D
C164        C680   1.471       .  S
C169        C170   1.527       .  S
C169        C175   1.533       .  S
C169        C173   1.542       .  S
C169       C1940   1.546       .  S
C170        H177   1.087       .  S
C170        C171   1.361       .  D
C171        C172   1.543       .  S
C171        C302   1.468       .  S
C172        C176   1.533       .  S
C172        C174   1.548       .  S
C172        H178   1.111       .  S
C173        H179   1.083       .  S
C173        C174   1.370       .  D
C174       C1953   1.487       .  S
C175        H180   1.082       .  S
C175        C176   1.361       .  D
C176        C758   1.464       .  S
C181        C182   1.537       .  S
C181        C187   1.526       .  S
C181        C185   1.533       .  S
C181       C1920   1.540       .  S
C182        H189   1.086       .  S
C182        C183   1.366       .  D
C183        C184   1.552       .  S
C183        C371   1.479       .  S
C184        C188   1.534       .  S
C184        C186   1.553       .  S
C184        H190   1.109       .  S
C185        H191   1.083       .  S
C185        C186   1.366       .  D
C186       C1930   1.484       .  S
C187        H192   1.083       .  S
C187        C188   1.355       .  D
C188        C480   1.468       .  S
C193        C194   1.542       .  S
C193        C199   1.538       .  S
C193        C197   1.539       .  S
C193       C1900   1.559       .  S
C194        H201   1.083       .  S
C194        C195   1.368       .  D
C195        C196   1.547       .  S
C195        C385   1.478       .  S
C196        C200   1.523       .  S
C196        C198   1.558       .  S
C196        H202   1.104       .  S
C197        H203   1.086       .  S
C197        C198   1.375       .  D
C198       C1910   1.520       .  S
C199        H204   1.084       .  S
C199        C200   1.359       .  D
C200        C929   1.463       .  S
C205        C206   1.543       .  S
C205        C211   1.537       .  S
C205        C209   1.546       .  S
C205       C1880   1.562       .  S
C206        H213   1.086       .  S
C206        C207   1.367       .  D
C207        C208   1.540       .  S
C207        C848   1.482       .  S
C208        C212   1.553       .  S
C208        C210   1.542       .  S
C208        H214   1.110       .  S
C209        H215   1.085       .  S
C209        C210   1.368       .  D
C210        C289   1.477       .  S
C211        H216   1.086       .  S
C211        C212   1.369       .  D
C212       C1890   1.502       .  S
C217        C218   1.520       .  S
C217        C223   1.533       .  S
C217        C221   1.545       .  S
C217       C1923   1.540       .  S
C218        H225   1.085       .  S
C218        C219   1.352       .  D
C219        C220   1.540       .  S
C219        C494   1.466       .  S
C220        C224   1.545       .  S
C220        C222   1.555       .  S
C220        H226   1.110       .  S
C221        H227   1.082       .  S
C221        C222   1.376       .  D
C222       C1973   1.492       .  S
C223        H228   1.087       .  S
C223        C224   1.358       .  D
C224        C430   1.473       .  S
C229        C230   1.532       .  S
C229        C235   1.515       .  S
C229        C233   1.553       .  S
C229       C1943   1.550       .  S
C230        H237   1.082       .  S
C230        C231   1.360       .  D
C231        C232   1.531       .  S
C231        C744   1.466       .  S
C232        C236   1.557       .  S
C232        C234   1.563       .  S
C232        H238   1.105       .  S
C233        H239   1.082       .  S
C233        C234   1.386       .  D
C234       C1870   1.523       .  S
C235        H240   1.088       .  S
C235        C236   1.348       .  D
C236        C444   1.478       .  S
C241        C242   1.542       .  S
C241        C247   1.541       .  S
C241        C245   1.537       .  S
C241       C1963   1.550       .  S
C242        H249   1.086       .  S
C242        C243   1.367       .  D
C243        C244   1.532       .  S
C243        C665   1.471       .  S
C244        C248   1.544       .  S
C244        C246   1.555       .  S
C244        H250   1.110       .  S
C245        H251   1.086       .  S
C245        C246   1.369       .  D
C246       C1893   1.504       .  S
C247        H252   1.086       .  S
C247        C248   1.364       .  D
C248        C303   1.472       .  S
C253        C254   1.541       .  S
C253        C259   1.534       .  S
C253        C257   1.551       .  S
C253       C1860   1.568       .  S
C254        H261   1.080       .  S
C254        C255   1.362       .  D
C255        C256   1.539       .  S
C255        C374   1.483       .  S
C256        C260   1.549       .  S
C256        C258   1.565       .  S
C256        H262   1.106       .  S
C257        H263   1.081       .  S
C257        C258   1.375       .  D
C258       C1983   1.516       .  S
C259        H264   1.087       .  S
C259        C260   1.362       .  D
C260        C574   1.483       .  S
C265        C266   1.537       .  S
C265        C271   1.540       .  S
C265        C269   1.539       .  S
C265       C1933   1.547       .  S
C266        H273   1.084       .  S
C266        C267   1.362       .  D
C267        C268   1.526       .  S
C267        C388   1.459       .  S
C268        C272   1.544       .  S
C268        C270   1.552       .  S
C268        H274   1.109       .  S
C269        H275   1.086       .  S
C269        C270   1.369       .  D
C270       C1883   1.502       .  S
C271        H276   1.084       .  S
C271        C272   1.361       .  D
C272        C864   1.467       .  S
O277       Cu285   1.973       .  S
O277        C287   1.274       .  A
O278       Cu285   1.995       .  S
O278        C288   1.275       .  A
O279       Cu285   2.025       .  S
O279        C289   1.279       .  A
O280       Cu285   2.008       .  S
O280        C290   1.276       .  A
O281       Cu286   2.012       .  S
O281        C290   1.279       .  A
O282       Cu286   2.001       .  S
O282        C289   1.277       .  A
O283       Cu286   1.964       .  S
O283        C288   1.271       .  A
O284       Cu286   1.985       .  S
O284        C287   1.274       .  A
Cu285      Cu286   2.369       .  S
C287       C1840   1.473       .  S
C288       C1244   1.447       .  S
C290       C1850   1.495       .  S
O291       Cu299   1.980       .  S
O291        C301   1.272       .  A
O292       Cu299   1.976       .  S
O292        C302   1.274       .  A
O293       Cu299   1.993       .  S
O293        C303   1.276       .  A
O294       Cu299   2.003       .  S
O294        C304   1.278       .  A
O295       Cu300   1.979       .  S
O295        C304   1.273       .  A
O296       Cu300   2.016       .  S
O296        C303   1.278       .  A
O297       Cu300   2.024       .  S
O297        C302   1.279       .  A
O298       Cu300   1.982       .  S
O298        C301   1.275       .  A
Cu299      Cu300   2.370       .  S
C301       C1843   1.479       .  S
C304       C1833   1.479       .  S
O305       Cu313   2.038       .  S
O305        C315   1.283       .  A
O306       Cu313   2.010       .  S
O306        C316   1.280       .  A
O307       Cu313   1.995       .  S
O307        C317   1.274       .  A
O308       Cu313   2.007       .  S
O308        C318   1.276       .  A
O309       Cu314   1.981       .  S
O309        C318   1.276       .  A
O310       Cu314   1.995       .  S
O310        C317   1.278       .  A
O311       Cu314   1.957       .  S
O311        C316   1.268       .  A
O312       Cu314   1.966       .  S
O312        C315   1.270       .  A
Cu313      Cu314   2.373       .  S
C316       C1810   1.474       .  S
C317       C1820   1.466       .  S
O319       Cu327   1.996       .  S
O319        C329   1.276       .  A
O320       Cu327   1.971       .  S
O320        C330   1.274       .  A
O321       Cu327   1.988       .  S
O321        C331   1.274       .  A
O322       Cu327   1.981       .  S
O322        C332   1.274       .  A
O323       Cu328   2.028       .  S
O323        C332   1.281       .  A
O324       Cu328   2.019       .  S
O324        C331   1.280       .  A
O325       Cu328   1.985       .  S
O325        C330   1.274       .  A
O326       Cu328   2.020       .  S
O326        C329   1.278       .  A
Cu327      Cu328   2.363       .  S
C330       C1813   1.462       .  S
C331       C1800   1.484       .  S
O333       Cu341   1.974       .  S
O333        C343   1.274       .  A
O334       Cu341   1.990       .  S
O334        C344   1.277       .  A
O335       Cu341   1.991       .  S
O335        C345   1.276       .  A
O336       Cu341   1.988       .  S
O336        C346   1.275       .  A
O337       Cu342   2.009       .  S
O337        C346   1.278       .  A
O338       Cu342   2.043       .  S
O338        C345   1.282       .  A
O339       Cu342   2.012       .  S
O339        C344   1.277       .  A
O340       Cu342   1.989       .  S
O340        C343   1.275       .  A
Cu341      Cu342   2.372       .  S
C343       C1793   1.456       .  S
C346       C1783   1.487       .  S
O347       Cu355   2.029       .  S
O347        C357   1.280       .  A
O348       Cu355   2.010       .  S
O348        C358   1.277       .  A
O349       Cu355   2.008       .  S
O349        C359   1.276       .  A
O350       Cu355   2.009       .  S
O350        C360   1.276       .  A
O351       Cu356   2.004       .  S
O351        C360   1.277       .  A
O352       Cu356   2.027       .  S
O352        C359   1.279       .  A
O353       Cu356   2.008       .  S
O353        C358   1.277       .  A
O354       Cu356   1.993       .  S
O354        C357   1.275       .  A
Cu355      Cu356   2.366       .  S
C357       C1770   1.492       .  S
C360       C1780   1.497       .  S
O361       Cu369   1.990       .  S
O361        C371   1.276       .  A
O362       Cu369   1.986       .  S
O362        C372   1.274       .  A
O363       Cu369   2.009       .  S
O363        C373   1.279       .  A
O364       Cu369   2.026       .  S
O364        C374   1.279       .  A
O365       Cu370   2.031       .  S
O365        C374   1.279       .  A
O366       Cu370   1.997       .  S
O366        C373   1.275       .  A
O367       Cu370   2.030       .  S
O367        C372   1.281       .  A
O368       Cu370   2.034       .  S
O368        C371   1.280       .  A
Cu369      Cu370   2.368       .  S
C372       C1760   1.482       .  S
C373       C1750   1.477       .  S
O375       Cu383   2.004       .  S
O375        C385   1.278       .  A
O376       Cu383   1.993       .  S
O376        C386   1.277       .  A
O377       Cu383   1.986       .  S
O377        C387   1.274       .  A
O378       Cu383   1.979       .  S
O378        C388   1.272       .  A
O379       Cu384   2.017       .  S
O379        C388   1.279       .  A
O380       Cu384   1.995       .  S
O380        C387   1.278       .  A
O381       Cu384   2.011       .  S
O381        C386   1.277       .  A
O382       Cu384   2.024       .  S
O382        C385   1.279       .  A
Cu383      Cu384   2.374       .  S
C386       C1753   1.476       .  S
C387       C1743   1.475       .  S
O389       Cu397   2.006       .  S
O389        C399   1.275       .  A
O390       Cu397   2.012       .  S
O390        C400   1.278       .  A
O391       Cu397   1.990       .  S
O391        C401   1.275       .  A
O392       Cu397   1.996       .  S
O392        C402   1.279       .  A
O393       Cu398   2.021       .  S
O393        C402   1.276       .  A
O394       Cu398   1.993       .  S
O394        C401   1.275       .  A
O395       Cu398   1.991       .  S
O395        C400   1.276       .  A
O396       Cu398   2.028       .  S
O396        C399   1.281       .  A
Cu397      Cu398   2.368       .  S
C400       C1720   1.479       .  S
C401       C1730   1.487       .  S
O403       Cu411   1.998       .  S
O403        C413   1.277       .  A
O404       Cu411   2.008       .  S
O404        C414   1.276       .  A
O405       Cu411   2.009       .  S
O405        C415   1.276       .  A
O406       Cu411   1.998       .  S
O406        C416   1.276       .  A
O407       Cu412   2.011       .  S
O407        C416   1.277       .  A
O408       Cu412   2.010       .  S
O408        C415   1.279       .  A
O409       Cu412   2.009       .  S
O409        C414   1.277       .  A
O410       Cu412   1.995       .  S
O410        C413   1.276       .  A
Cu411      Cu412   2.365       .  S
C413       C1723   1.475       .  S
C416       C1710   1.491       .  S
O417       Cu425   1.987       .  S
O417        C427   1.273       .  A
O418       Cu425   1.995       .  S
O418        C428   1.276       .  A
O419       Cu425   1.986       .  S
O419        C429   1.273       .  A
O420       Cu425   1.981       .  S
O420        C430   1.276       .  A
O421       Cu426   2.029       .  S
O421        C430   1.278       .  A
O422       Cu426   2.016       .  S
O422        C429   1.278       .  A
O423       Cu426   1.994       .  S
O423        C428   1.276       .  A
O424       Cu426   2.020       .  S
O424        C427   1.280       .  A
Cu425      Cu426   2.369       .  S
C428       C1690   1.475       .  S
C429       C1703   1.493       .  S
O431       Cu439   1.986       .  S
O431        C441   1.273       .  A
O432       Cu439   1.981       .  S
O432        C442   1.272       .  A
O433       Cu439   2.000       .  S
O433        C443   1.278       .  A
O434       Cu439   2.005       .  S
O434        C444   1.282       .  A
O435       Cu440   2.015       .  S
O435        C444   1.274       .  A
O436       Cu440   1.979       .  S
O436        C443   1.273       .  A
O437       Cu440   2.018       .  S
O437        C442   1.281       .  A
O438       Cu440   2.055       .  S
O438        C441   1.285       .  A
Cu439      Cu440   2.370       .  S
C442       C1680   1.478       .  S
C443       C1693   1.473       .  S
C445        C446   1.537       .  S
C445        C451   1.538       .  S
C445        C449   1.524       .  S
C445       C1673   1.533       .  S
C446        H453   1.085       .  S
C446        C447   1.363       .  D
C447        C448   1.538       .  S
C447       C1206   1.463       .  S
C448        C452   1.529       .  S
C448        C450   1.552       .  S
C448        H454   1.110       .  S
C449        H455   1.087       .  S
C449        C450   1.361       .  D
C450       C2063   1.484       .  S
C451        H456   1.086       .  S
C451        C452   1.367       .  D
C452        C535   1.459       .  S
C457        C458   1.538       .  S
C457        C463   1.532       .  S
C457        C461   1.554       .  S
C457       C1913   1.560       .  S
C458        H465   1.083       .  S
C458        C459   1.360       .  D
C459        C460   1.540       .  S
C459       C1233   1.479       .  S
C460        C464   1.541       .  S
C460        C462   1.566       .  S
C460        H466   1.109       .  S
C461        H467   1.084       .  S
C461        C462   1.385       .  D
C462       C2120   1.528       .  S
C463        H468   1.087       .  S
C463        C464   1.358       .  D
C464        C534   1.477       .  S
O469       Cu477   1.992       .  S
O469        C479   1.277       .  A
O470       Cu477   2.003   1_565  S
O470        C480   1.278       .  A
O471       Cu477   1.970       .  S
O471        C481   1.269       .  A
O472       Cu477   1.978   1_565  S
O472        C482   1.271       .  A
O473       Cu478   2.048   1_565  S
O473        C482   1.284       .  A
O474       Cu478   2.035       .  S
O474        C481   1.283       .  A
O475       Cu478   2.012   1_565  S
O475        C480   1.275       .  A
O476       Cu478   2.014       .  S
O476        C479   1.277       .  A
Cu477      Cu478   2.361       .  S
C479       C1650   1.482       .  S
C482       C1660   1.494       .  S
O483       Cu491   2.015   1_554  S
O483        C493   1.277       .  A
O484       Cu491   2.012       .  S
O484        C494   1.276       .  A
O485       Cu491   2.019   1_554  S
O485        C495   1.277       .  A
O486       Cu491   2.035       .  S
O486        C496   1.281       .  A
O487       Cu492   2.004       .  S
O487        C496   1.276       .  A
O488       Cu492   2.012   1_554  S
O488        C495   1.278       .  A
O489       Cu492   2.005       .  S
O489        C494   1.277       .  A
O490       Cu492   1.984   1_554  S
O490        C493   1.274       .  A
Cu491      Cu492   2.365       .  S
C493       C1640   1.490       .  S
C496       C1663   1.501       .  S
C497        C498   1.535       .  S
C497        C503   1.541       .  S
C497        C501   1.536       .  S
C497       C2053   1.558       .  S
C498        H505   1.086       .  S
C498        C499   1.363       .  D
C499        C500   1.561       .  S
C499       C1193   1.493       .  S
C500        C504   1.531       .  S
C500        C502   1.563       .  S
C500        H506   1.107       .  S
C501        H507   1.086       .  S
C501        C502   1.374       .  D
C502       C1873   1.521       .  S
C503        H508   1.085       .  S
C503        C504   1.368       .  D
C504        C521   1.469       .  S
O509       Cu517   2.029   1_556  S
O509        C519   1.280       .  A
O510       Cu517   2.031       .  S
O510        C520   1.280       .  A
O511       Cu517   2.009   1_556  S
O511        C521   1.276       .  A
O512       Cu517   2.010       .  S
O512        C522   1.277       .  A
O513       Cu518   2.015       .  S
O513        C522   1.279       .  A
O514       Cu518   2.004   1_556  S
O514        C521   1.277       .  A
O515       Cu518   1.989       .  S
O515        C520   1.274       .  A
O516       Cu518   1.975   1_556  S
O516        C519   1.272       .  A
Cu517      Cu518   2.369       .  S
C519       C1653   1.492       .  S
C520        C539   1.470       .  S
C522       C1633   1.483       .  S
O523       Cu531   2.021       .  S
O523        C533   1.278       .  A
O524       Cu531   2.021   1_565  S
O524        C534   1.278       .  A
O525       Cu531   2.030       .  S
O525        C535   1.281       .  A
O526       Cu531   2.015   1_565  S
O526        C536   1.279       .  A
O527       Cu532   1.965   1_565  S
O527        C536   1.272       .  A
O528       Cu532   1.967       .  S
O528        C535   1.270       .  A
O529       Cu532   2.012   1_565  S
O529        C534   1.278       .  A
O530       Cu532   1.990       .  S
O530        C533   1.277       .  A
Cu531      Cu532   2.374       .  S
C533       C1630   1.475       .  S
C536       C1643   1.477       .  S
C537        C538   1.536       .  S
C537        C543   1.544       .  S
C537        C541   1.527       .  S
C537       C1670   1.538       .  S
C538        H545   1.086       .  S
C538        C539   1.362       .  D
C539        C540   1.538       .  S
C540        C544   1.542       .  S
C540        C542   1.559       .  S
C540        H546   1.110       .  S
C541        H547   1.087       .  S
C541        C542   1.364       .  D
C542       C2093   1.502       .  S
C543        H548   1.085       .  S
C543        C544   1.367       .  D
C544       C1221   1.475       .  S
O549       Cu557   1.979       .  S
O549        C559   1.273       .  A
O550       Cu557   2.022   1_554  S
O550        C560   1.276       .  A
O551       Cu557   2.059       .  S
O551        C561   1.286       .  A
O552       Cu557   2.033   1_554  S
O552        C562   1.283       .  A
O553       Cu558   1.968   1_554  S
O553        C562   1.270       .  A
O554       Cu558   1.979       .  S
O554        C561   1.271       .  A
O555       Cu558   2.003   1_554  S
O555        C560   1.281       .  A
O556       Cu558   1.988       .  S
O556        C559   1.276       .  A
Cu557      Cu558   2.373       .  S
C559       C1620   1.457       .  S
C562       C1610   1.478       .  S
O563       Cu571   2.013       .  S
O563        C573   1.278       .  A
O564       Cu571   2.046   1_565  S
O564        C574   1.282       .  A
O565       Cu571   2.010       .  S
O565        C575   1.278       .  A
O566       Cu571   1.982   1_565  S
O566        C576   1.273       .  A
O567       Cu572   1.973   1_565  S
O567        C576   1.275       .  A
O568       Cu572   1.999       .  S
O568        C575   1.276       .  A
O569       Cu572   1.989   1_565  S
O569        C574   1.275       .  A
O570       Cu572   1.974       .  S
O570        C573   1.274       .  A
Cu571      Cu572   2.374       .  S
C573       C1600   1.476       .  S
C576       C1623   1.455       .  S
C577        C578   1.530       .  S
C577        C583   1.538       .  S
C577        C581   1.550       .  S
C577       C2023   1.560       .  S
C578        H585   1.087       .  S
C578        C579   1.361       .  D
C579        C580   1.550       .  S
C579       C1236   1.483       .  S
C580        C584   1.542       .  S
C580        C582   1.563       .  S
C580        H586   1.110       .  S
C581        H587   1.084       .  S
C581        C582   1.376       .  D
C582       C1590   1.511       .  S
C583        H588   1.081       .  S
C583        C584   1.362       .  D
C584        C599   1.479       .  S
O589       Cu597   2.025   1_565  S
O589        C599   1.279       .  A
O590       Cu597   2.001       .  S
O590        C600   1.278       .  A
O591       Cu597   1.984   1_565  S
O591        C601   1.273       .  A
O592       Cu597   1.994       .  S
O592        C602   1.275       .  A
O593       Cu598   2.036   1_545  S
O593        C602   1.281       .  A
O594       Cu598   2.029       .  S
O594        C601   1.281       .  A
O595       Cu598   2.003   1_545  S
O595        C600   1.276       .  A
O596       Cu598   2.023       .  S
O596        C599   1.278       .  A
Cu597      Cu598   2.370   1_545  S
C600       C1580   1.476       .  S
C601       C1613   1.482       .  S
C602       C1159   1.475       .  S
O603       Cu611   2.017   1_554  S
O603        C613   1.278       .  A
O604       Cu611   2.029       .  S
O604        C614   1.280       .  A
O605       Cu611   2.019   1_554  S
O605        C615   1.278       .  A
O606       Cu611   2.004       .  S
O606        C616   1.277       .  A
O607       Cu612   1.984   1_556  S
O607        C616   1.274       .  A
O608       Cu612   1.997       .  S
O608        C615   1.276       .  A
O609       Cu612   2.019   1_556  S
O609        C614   1.278       .  A
O610       Cu612   1.988       .  S
O610        C613   1.275       .  A
Cu611      Cu612   2.368   1_556  S
C613       C1583   1.478       .  S
C614        C619   1.482       .  S
C615       C1176   1.469       .  S
C616       C1603   1.477       .  S
C617        C618   1.529       .  S
C617        C623   1.535       .  S
C617        C621   1.547       .  S
C617       C2163   1.561       .  S
C618        H625   1.083       .  S
C618        C619   1.367       .  D
C619        C620   1.545       .  S
C620        C624   1.551       .  S
C620        C622   1.569       .  S
C620        H626   1.110       .  S
C621        H627   1.085       .  S
C621        C622   1.376       .  D
C622       C1570   1.520       .  S
C623        H628   1.085       .  S
C623        C624   1.362       .  D
C624       C1192   1.486       .  S
C629        C630   1.541       .  S
C629        C635   1.517       .  S
C629        C633   1.545       .  S
C629       C1560   1.541       .  S
C630        H637   1.083       .  S
C630        C631   1.359       .  D
C631        C632   1.526       .  S
C631        C718   1.467       .  S
C632        C636   1.555       .  S
C632        C634   1.560       .  S
C632        H638   1.105       .  S
C633        H639   1.085       .  S
C633        C634   1.380       .  D
C634       C2193   1.510       .  S
C635        H640   1.088       .  S
C635        C636   1.354       .  D
C636       C1154   1.478       .  S
C641        C642   1.550       .  S
C641        C647   1.539       .  S
C641        C645   1.517       .  S
C641       C2003   1.538       .  S
C642        H649   1.085       .  S
C642        C643   1.374       .  D
C643        C644   1.541       .  S
C643       C1125   1.477       .  S
C644        C648   1.529       .  S
C644        C646   1.547       .  S
C644        H650   1.111       .  S
C645        H651   1.088       .  S
C645        C646   1.355       .  D
C646       C1550   1.478       .  S
C647        H652   1.085       .  S
C647        C648   1.366       .  D
C648        C719   1.465       .  S
O653       Cu661   1.992   1_655  S
O653        C663   1.273       .  A
O654       Cu661   1.996       .  S
O654        C664   1.275       .  A
O655       Cu661   1.987   1_655  S
O655        C665   1.274       .  A
O656       Cu661   1.994       .  S
O656        C666   1.276       .  A
O657       Cu662   2.015       .  S
O657        C666   1.278       .  A
O658       Cu662   2.027   1_655  S
O658        C665   1.279       .  A
O659       Cu662   2.039       .  S
O659        C664   1.282       .  A
O660       Cu662   2.026   1_655  S
O660        C663   1.280       .  A
Cu661      Cu662   2.366       .  S
C663       C1543   1.501       .  S
C666       C1530   1.484       .  S
O667       Cu675   2.042   1_554  S
O667        C677   1.282       .  A
O668       Cu675   2.027       .  S
O668        C678   1.279       .  A
O669       Cu675   1.985   1_554  S
O669        C679   1.274       .  A
O670       Cu675   2.008       .  S
O670        C680   1.276       .  A
O671       Cu676   2.000       .  S
O671        C680   1.277       .  A
O672       Cu676   1.998   1_554  S
O672        C679   1.277       .  A
O673       Cu676   1.988       .  S
O673        C678   1.273       .  A
O674       Cu676   2.003   1_554  S
O674        C677   1.276       .  A
Cu675      Cu676   2.366       .  S
C678       C1540   1.502       .  S
C679       C1520   1.473       .  S
C681        C682   1.530       .  S
C681        C687   1.545       .  S
C681        C685   1.530       .  S
C681       C2143   1.542       .  S
C682        H689   1.086       .  S
C682        C683   1.359       .  D
C683        C684   1.538       .  S
C683        C703   1.463       .  S
C684        C688   1.558       .  S
C684        C686   1.568       .  S
C684        H690   1.109       .  S
C685        H691   1.087       .  S
C685        C686   1.365       .  D
C686       C1993   1.513       .  S
C687        H692   1.085       .  S
C687        C688   1.369       .  D
C688       C1141   1.494       .  S
O693       Cu701   2.022       .  S
O693        C703   1.279       .  A
O694       Cu701   2.000   1_554  S
O694        C704   1.278       .  A
O695       Cu701   2.022       .  S
O695        C705   1.279       .  A
O696       Cu701   2.032   1_554  S
O696        C706   1.278       .  A
O697       Cu702   2.014   1_554  S
O697        C706   1.280       .  A
O698       Cu702   2.002       .  S
O698        C705   1.277       .  A
O699       Cu702   1.989   1_554  S
O699        C704   1.274       .  A
O700       Cu702   1.982       .  S
O700        C703   1.273       .  A
Cu701      Cu702   2.370       .  S
C704       C1510   1.477       .  S
C705       C1533   1.487       .  S
C706        C723   1.486       .  S
O707       Cu715   1.990   1_655  S
O707        C717   1.274       .  A
O708       Cu715   2.000       .  S
O708        C718   1.275       .  A
O709       Cu715   2.020   1_655  S
O709        C719   1.279       .  A
O710       Cu715   2.016       .  S
O710        C720   1.280       .  A
O711       Cu716   1.974       .  S
O711        C720   1.272       .  A
O712       Cu716   1.981   1_655  S
O712        C719   1.273       .  A
O713       Cu716   2.016       .  S
O713        C718   1.279       .  A
O714       Cu716   1.994   1_655  S
O714        C717   1.278       .  A
Cu715      Cu716   2.373       .  S
C717       C1523   1.466       .  S
C720       C1513   1.476       .  S
C721        C722   1.527       .  S
C721        C727   1.543       .  S
C721        C725   1.541       .  S
C721       C2010   1.553       .  S
C722        H729   1.087       .  S
C722        C723   1.362       .  D
C723        C724   1.555       .  S
C724        C728   1.528       .  S
C724        C726   1.554       .  S
C724        H730   1.107       .  S
C725        H731   1.082       .  S
C725        C726   1.373       .  D
C726       C1563   1.502       .  S
C727        H732   1.085       .  S
C727        C728   1.365       .  D
C728       C1112   1.475       .  S
O733       Cu741   1.985   1_554  S
O733        C743   1.272       .  A
O734       Cu741   2.006       .  S
O734        C744   1.275       .  A
O735       Cu741   2.063   1_554  S
O735        C745   1.285       .  A
O736       Cu741   2.046       .  S
O736        C746   1.283       .  A
O737       Cu742   1.974       .  S
O737        C746   1.271       .  A
O738       Cu742   2.000   1_554  S
O738        C745   1.275       .  A
O739       Cu742   1.998       .  S
O739        C744   1.277       .  A
O740       Cu742   1.971   1_554  S
O740        C743   1.276       .  A
Cu741      Cu742   2.365       .  S
C743       C1493   1.449       .  S
C746       C1500   1.498       .  S
O747       Cu755   1.984       .  S
O747        C757   1.273       .  A
O748       Cu755   1.999   1_655  S
O748        C758   1.276       .  A
O749       Cu755   2.015       .  S
O749        C759   1.278       .  A
O750       Cu755   2.003   1_655  S
O750        C760   1.277       .  A
O751       Cu756   2.024   1_655  S
O751        C760   1.277       .  A
O752       Cu756   2.008       .  S
O752        C759   1.276       .  A
O753       Cu756   2.010   1_655  S
O753        C758   1.276       .  A
O754       Cu756   2.022       .  S
O754        C757   1.280       .  A
Cu755      Cu756   2.366       .  S
C757       C1480   1.487       .  S
C760       C1503   1.505       .  S
O761       Cu769   1.986       .  S
O761        C771   1.277   1_455  A
O762       Cu769   2.005       .  S
O762        C772   1.276       .  A
O763       Cu769   2.003   1_655  S
O763        C773   1.276       .  A
O764       Cu769   1.974       .  S
O764        C774   1.274       .  A
O765       Cu770   2.000       .  S
O765        C774   1.277       .  A
O766       Cu770   2.045       .  S
O766        C773   1.282   1_455  A
O767       Cu770   2.011       .  S
O767        C772   1.279       .  A
O768       Cu770   1.971       .  S
O768        C771   1.270   1_455  A
Cu769      Cu770   2.379       .  S
C771       C1490   1.447       .  S
C772       C1079   1.472       .  S
C773        C780   1.485       .  S
C774       C1473   1.466       .  S
C775        C776   1.552       .  S
C775        C781   1.534       .  S
C775        C779   1.542       .  S
C775       C1460   1.572       .  S
C776        H783   1.085       .  S
C776        C777   1.384       .  D
C777        C778   1.570       .  S
C777       C2103   1.533       .  S
C778        C782   1.536       .  S
C778        C780   1.546       .  S
C778        H784   1.109       .  S
C779        H785   1.079       .  S
C779        C780   1.360       .  D
C781        H786   1.084       .  S
C781        C782   1.362       .  D
C782       C1128   1.477       .  S
O787       Cu795   1.985   1_554  S
O787        C797   1.276       .  A
O788       Cu795   2.002       .  S
O788        C798   1.277       .  A
O789       Cu795   1.994   1_554  S
O789        C799   1.276       .  A
O790       Cu795   1.981       .  S
O790        C800   1.273       .  A
O791       Cu796   2.024       .  S
O791        C800   1.281       .  A
O792       Cu796   2.034   1_554  S
O792        C799   1.279       .  A
O793       Cu796   2.011       .  S
O793        C798   1.276       .  A
O794       Cu796   1.986   1_554  S
O794        C797   1.274       .  A
Cu795      Cu796   2.367       .  S
C797       C1470   1.459       .  S
C798        C808   1.469       .  S
C799       C1096   1.476       .  S
C800       C1483   1.485       .  S
C801        C802   1.531       .  S
C801        C807   1.536       .  S
C801        C805   1.559       .  S
C801       C2043   1.573       .  S
C802        H809   1.088       .  S
C802        C803   1.355       .  D
C803        C804   1.553       .  S
C803       C1140   1.490       .  S
C804        C808   1.535       .  S
C804        C806   1.563       .  S
C804        H810   1.108       .  S
C805        H811   1.078       .  S
C805        C806   1.382       .  D
C806       C1573   1.522       .  S
C807        H812   1.084       .  S
C807        C808   1.363       .  D
C813        C814   1.542       .  S
C813        C819   1.520       .  S
C813        C817   1.550       .  S
C813       C1450   1.557       .  S
C814        H821   1.086       .  S
C814        C815   1.366       .  D
C815        C816   1.548       .  S
C815       C1047   1.482       .  S
C816        C820   1.524       .  S
C816        C818   1.555       .  S
C816        H822   1.105       .  S
C817        H823   1.082       .  S
C817        C818   1.379       .  D
C818       C2033   1.501       .  S
C819        H824   1.082       .  S
C819        C820   1.347       .  D
C820        C902   1.455       .  S
C825        C826   1.536       .  S
C825        C831   1.547       .  S
C825        C829   1.533       .  S
C825       C1950   1.553       .  S
C826        H833   1.083       .  S
C826        C827   1.364       .  D
C827        C828   1.547       .  S
C827       C1075   1.481       .  S
C828        C832   1.535       .  S
C828        C830   1.563       .  S
C828        H834   1.107       .  S
C829        H835   1.085       .  S
C829        C830   1.367       .  D
C830       C2183   1.521       .  S
C831        H836   1.085       .  S
C831        C832   1.365       .  D
C832        C903   1.471       .  S
O837       Cu845   2.031       .  S
O837        C847   1.282       .  A
O838       Cu845   2.018   1_655  S
O838        C848   1.279       .  A
O839       Cu845   1.971       .  S
O839        C849   1.272       .  A
O840       Cu845   1.939       .  S
O840        C850   1.266   1_455  A
O841       Cu846   2.027   1_655  S
O841        C850   1.281       .  A
O842       Cu846   2.044       .  S
O842        C849   1.282       .  A
O843       Cu846   2.030   1_655  S
O843        C848   1.279       .  A
O844       Cu846   2.003       .  S
O844        C847   1.274       .  A
Cu845      Cu846   2.370       .  S
C847       C1433   1.477       .  S
C850       C1440   1.477       .  S
O851       Cu859   2.002       .  S
O851        C861   1.276       .  A
O852       Cu859   1.977   1_565  S
O852        C862   1.276       .  A
O853       Cu859   1.982       .  S
O853        C863   1.273       .  A
O854       Cu859   1.987   1_565  S
O854        C864   1.275       .  A
O855       Cu860   2.018   1_565  S
O855        C864   1.278       .  A
O856       Cu860   2.011       .  S
O856        C863   1.279       .  A
O857       Cu860   1.986   1_565  S
O857        C862   1.273       .  A
O858       Cu860   2.014       .  S
O858        C861   1.277       .  A
Cu859      Cu860   2.365       .  S
C862       C1443   1.463       .  S
C863       C1420   1.476       .  S
C865        C866   1.532       .  S
C865        C871   1.543       .  S
C865        C869   1.555       .  S
C865       C1863   1.569       .  S
C866        H873   1.087       .  S
C866        C867   1.359       .  D
C867        C868   1.545       .  S
C867        C889   1.481       .  S
C868        C872   1.533       .  S
C868        C870   1.553       .  S
C868        H874   1.107       .  S
C869        H875   1.082       .  S
C869        C870   1.379       .  D
C870       C2083   1.505       .  S
C871        H876   1.082       .  S
C871        C872   1.365       .  D
C872       C1032   1.478       .  S
O877       Cu885   2.009   1_565  S
O877        C887   1.277       .  A
O878       Cu885   2.029       .  S
O878        C888   1.278       .  A
O879       Cu885   2.049   1_565  S
O879        C889   1.282       .  A
O880       Cu885   2.045       .  S
O880        C890   1.282       .  A
O881       Cu886   1.974   1_545  S
O881        C890   1.271       .  A
O882       Cu886   1.992       .  S
O882        C889   1.275       .  A
O883       Cu886   2.014   1_545  S
O883        C888   1.279       .  A
O884       Cu886   1.991       .  S
O884        C887   1.276       .  A
Cu885      Cu886   2.365   1_545  S
C887       C1430   1.467       .  S
C888        C907   1.479       .  S
C890       C1413   1.495       .  S
O891       Cu899   1.964       .  S
O891        C901   1.273   1_455  A
O892       Cu899   1.971       .  S
O892        C902   1.273       .  A
O893       Cu899   2.002       .  S
O893        C903   1.275   1_455  A
O894       Cu899   1.992       .  S
O894        C904   1.275       .  A
O895       Cu900   2.036       .  S
O895        C904   1.280       .  A
O896       Cu900   2.015   1_655  S
O896        C903   1.279       .  A
O897       Cu900   2.016       .  S
O897        C902   1.277       .  A
O898       Cu900   2.015       .  S
O898        C901   1.278   1_455  A
Cu899      Cu900   2.369       .  S
C901       C1423   1.477       .  S
C904       C1410   1.501       .  S
C905        C906   1.521       .  S
C905        C911   1.549       .  S
C905        C909   1.533       .  S
C905       C1453   1.547       .  S
C906        H913   1.101       .  S
C906        C907   1.358       .  D
C907        C908   1.546       .  S
C908        C912   1.531       .  S
C908        C910   1.559       .  S
C908        H914   1.108       .  S
C909        H915   1.080       .  S
C909        C910   1.370       .  D
C910       C2150   1.501       .  S
C911        H916   1.087       .  S
C911        C912   1.363       .  D
C912       C1059   1.475       .  S
O917       Cu925   1.980   1_565  S
O917        C927   1.273       .  A
O918       Cu925   1.994       .  S
O918        C928   1.274       .  A
O919       Cu925   2.025   1_565  S
O919        C929   1.280       .  A
O920       Cu925   2.005       .  S
O920        C930   1.279       .  A
O921       Cu926   1.979   1_545  S
O921        C930   1.273       .  A
O922       Cu926   1.978       .  S
O922        C929   1.272       .  A
O923       Cu926   1.987   1_545  S
O923        C928   1.277       .  A
O924       Cu926   1.966       .  S
O924        C927   1.274       .  A
Cu925      Cu926   2.379   1_545  S
C927       C1400   1.451       .  S
C930       C1390   1.476       .  S
O931       Cu939   2.002       .  S
O931        C941   1.278       .  A
O932       Cu939   2.030       .  S
O932        C942   1.281   1_455  A
O933       Cu939   2.016       .  S
O933        C943   1.275       .  A
O934       Cu939   1.962       .  S
O934        C944   1.269   1_455  A
O935       Cu940   2.006       .  S
O935        C944   1.280   1_455  A
O936       Cu940   2.005       .  S
O936        C943   1.280       .  A
O937       Cu940   1.967       .  S
O937        C942   1.272   1_455  A
O938       Cu940   1.969       .  S
O938        C941   1.269       .  A
Cu939      Cu940   2.371       .  S
C941       C1383   1.488       .  S
C942       C1242   1.464       .  S
C944       C1403   1.460       .  S
O945       Cu953   2.007       .  S
O945        C955   1.279       .  A
O946       Cu953   2.020       .  S
O946        C956   1.279       .  A
O947       Cu953   2.015       .  S
O947        C957   1.277   1_455  A
O948       Cu953   2.004       .  S
O948        C958   1.276       .  A
O949       Cu954   2.000       .  S
O949        C958   1.278       .  A
O950       Cu954   2.025       .  S
O950        C957   1.280   1_455  A
O951       Cu954   2.005       .  S
O951        C956   1.276       .  A
O952       Cu954   1.985       .  S
O952        C955   1.273       .  A
Cu953      Cu954   2.369       .  S
C955       C1393   1.477   1_455  S
C956        C999   1.473       .  S
C957        C966   1.482       .  S
C958       C1370   1.476       .  S
C959        C960   1.519       .  S
C959        C965   1.540       .  S
C959        C963   1.554       .  S
C959       C2073   1.558       .  S
C960        H967   1.088       .  S
C960        C961   1.352       .  D
C961        C962   1.549       .  S
C961       C1074   1.472       .  S
C962        C966   1.542       .  S
C962        C964   1.559       .  S
C962        H968   1.110       .  S
C963        H969   1.085       .  S
C963        C964   1.378       .  D
C964       C1463   1.512       .  S
C965        H970   1.080       .  S
C965        C966   1.367       .  D
O971       Cu979   1.968       .  S
O971        C981   1.269       .  A
O972       Cu979   1.981   1_545  S
O972        C982   1.273       .  A
O973       Cu979   2.008       .  S
O973        C983   1.278       .  A
O974       Cu979   2.016   1_545  S
O974        C984   1.280       .  A
O975       Cu980   2.004   1_545  S
O975        C984   1.275       .  A
O976       Cu980   2.015       .  S
O976        C983   1.277       .  A
O977       Cu980   2.029   1_545  S
O977        C982   1.280       .  A
O978       Cu980   2.015       .  S
O978        C981   1.280       .  A
Cu979      Cu980   2.369       .  S
C981       C1380   1.487       .  S
C982       C1016   1.467       .  S
C983        C987   1.473       .  S
C984       C1373   1.480       .  S
C985        C986   1.543       .  S
C985        C991   1.547       .  S
C985        C989   1.542       .  S
C985       C2203   1.567       .  S
C986        H993   1.083       .  S
C986        C987   1.366       .  D
C987        C988   1.533       .  S
C988        C992   1.550       .  S
C988        C990   1.555       .  S
C988        H994   1.110       .  S
C989        H995   1.086       .  S
C989        C990   1.371       .  D
C990       C1593   1.509       .  S
C991        H996   1.085       .  S
C991        C992   1.369       .  D
C992       C1033   1.487       .  S
C997        C998   1.545       .  S
C997       C1003   1.537       .  S
C997       C1001   1.533       .  S
C997       C1353   1.548       .  S
C998       H1005   1.083       .  S
C998        C999   1.370       .  D
C999       C1000   1.533       .  S
C1000      C1004   1.551       .  S
C1000      C1002   1.557       .  S
C1000      H1006   1.110       .  S
C1001      H1007   1.086       .  S
C1001      C1002   1.366       .  D
C1002      C1363   1.502       .  S
C1003      H1008   1.085       .  S
C1003      C1004   1.360       .  D
C1004      C1046   1.478       .  S
C1009      C1010   1.537       .  S
C1009      C1015   1.536       .  S
C1009      C1013   1.532       .  S
C1009      C1350   1.547       .  S
C1010      H1017   1.085       .  S
C1010      C1011   1.366       .  D
C1011      C1012   1.546       .  S
C1011      C1062   1.472       .  S
C1012      C1016   1.538       .  S
C1012      C1014   1.560       .  S
C1012      H1018   1.110       .  S
C1013      H1019   1.087       .  S
C1013      C1014   1.366       .  D
C1014      C1340   1.507       .  S
C1015      H1020   1.086       .  S
C1015      C1016   1.365       .  D
O1021     Cu1029   2.002       .  S
O1021      C1031   1.279       .  A
O1022     Cu1029   2.023       .  S
O1022      C1032   1.279       .  A
O1023     Cu1029   2.011       .  S
O1023      C1033   1.278       .  A
O1024     Cu1029   1.992       .  S
O1024      C1034   1.274       .  A
O1025     Cu1030   2.019       .  S
O1025      C1034   1.280       .  A
O1026     Cu1030   2.038       .  S
O1026      C1033   1.281       .  A
O1027     Cu1030   2.015       .  S
O1027      C1032   1.276       .  A
O1028     Cu1030   1.977       .  S
O1028      C1031   1.272       .  A
Cu1029    Cu1030   2.367       .  S
C1031      C1330   1.470       .  S
C1034      C1763   1.479       .  S
O1035     Cu1043   1.978       .  S
O1035      C1045   1.273       .  A
O1036     Cu1043   2.023       .  S
O1036      C1046   1.278       .  A
O1037     Cu1043   2.038       .  S
O1037      C1047   1.281       .  A
O1038     Cu1043   2.001       .  S
O1038      C1048   1.277       .  A
O1039     Cu1044   1.991       .  S
O1039      C1048   1.274       .  A
O1040     Cu1044   2.003       .  S
O1040      C1047   1.276       .  A
O1041     Cu1044   2.002       .  S
O1041      C1046   1.279       .  A
O1042     Cu1044   2.003       .  S
O1042      C1045   1.278       .  A
Cu1043    Cu1044   2.370       .  S
C1045      C1790   1.466       .  S
C1048      C1320   1.486       .  S
O1049     Cu1057   2.026       .  S
O1049      C1059   1.280       .  A
O1050     Cu1057   1.999       .  S
O1050      C1060   1.275       .  A
O1051     Cu1057   2.022       .  S
O1051      C1061   1.280       .  A
O1052     Cu1057   2.039       .  S
O1052      C1062   1.281       .  A
O1053     Cu1058   1.969       .  S
O1053      C1062   1.273       .  A
O1054     Cu1058   1.986       .  S
O1054      C1061   1.274       .  A
O1055     Cu1058   1.972       .  S
O1055      C1060   1.275       .  A
O1056     Cu1058   1.998       .  S
O1056      C1059   1.275       .  A
Cu1057    Cu1058   2.368       .  S
C1060      C1310   1.467       .  S
C1061      C1803   1.486       .  S
O1063     Cu1071   2.000       .  S
O1063      C1073   1.277       .  A
O1064     Cu1071   1.988       .  S
O1064      C1074   1.278       .  A
O1065     Cu1071   2.012       .  S
O1065      C1075   1.276       .  A
O1066     Cu1071   2.014       .  S
O1066      C1076   1.277       .  A
O1067     Cu1072   2.000       .  S
O1067      C1076   1.277       .  A
O1068     Cu1072   2.041       .  S
O1068      C1075   1.282       .  A
O1069     Cu1072   2.018       .  S
O1069      C1074   1.276       .  A
O1070     Cu1072   1.998       .  S
O1070      C1073   1.276       .  A
Cu1071    Cu1072   2.369       .  S
C1073      C1830   1.485       .  S
C1076      C1303   1.486       .  S
C1077      C1078   1.551       .  S
C1077      C1083   1.541       .  S
C1077      C1081   1.542       .  S
C1077      C1360   1.562       .  S
C1078      H1085   1.085       .  S
C1078      C1079   1.370       .  D
C1079      C1080   1.541       .  S
C1080      C1084   1.527       .  S
C1080      C1082   1.551       .  S
C1080      H1086   1.108       .  S
C1081      H1087   1.086       .  S
C1081      C1082   1.371       .  D
C1082      C1293   1.508       .  S
C1083      H1088   1.083       .  S
C1083      C1084   1.362       .  D
C1084      C1155   1.471       .  S
C1089      C1090   1.543       .  S
C1089      C1095   1.528       .  S
C1089      C1093   1.547       .  S
C1089      C1283   1.553       .  S
C1090      H1097   1.083       .  S
C1090      C1091   1.365       .  D
C1091      C1092   1.538       .  S
C1091      C1113   1.479       .  S
C1092      C1096   1.547       .  S
C1092      C1094   1.560       .  S
C1092      H1098   1.108       .  S
C1093      H1099   1.085       .  S
C1093      C1094   1.374       .  D
C1094      C1290   1.507       .  S
C1095      H1100   1.087       .  S
C1095      C1096   1.359       .  D
O1101     Cu1109   2.003       .  S
O1101      C1111   1.276       .  A
O1102     Cu1109   2.019       .  S
O1102      C1112   1.279       .  A
O1103     Cu1109   2.027       .  S
O1103      C1113   1.279       .  A
O1104     Cu1109   1.999       .  S
O1104      C1114   1.276       .  A
O1105     Cu1110   2.010       .  S
O1105      C1114   1.277       .  A
O1106     Cu1110   2.017       .  S
O1106      C1113   1.278       .  A
O1107     Cu1110   2.008       .  S
O1107      C1112   1.276       .  A
O1108     Cu1110   2.011       .  S
O1108      C1111   1.278       .  A
Cu1109    Cu1110   2.366       .  S
C1111      C1270   1.488       .  S
C1114      C1713   1.496       .  S
O1115     Cu1123   1.996       .  S
O1115      C1125   1.274       .  A
O1116     Cu1123   1.990       .  S
O1116      C1126   1.276       .  A
O1117     Cu1123   2.013       .  S
O1117      C1127   1.278       .  A
O1118     Cu1123   2.007       .  S
O1118      C1128   1.277       .  A
O1119     Cu1124   2.026       .  S
O1119      C1128   1.278       .  A
O1120     Cu1124   2.003       .  S
O1120      C1127   1.275       .  A
O1121     Cu1124   2.012       .  S
O1121      C1126   1.278       .  A
O1122     Cu1124   2.026       .  S
O1122      C1125   1.281       .  A
Cu1123    Cu1124   2.364       .  S
C1126      C1300   1.483       .  S
C1127      C1853   1.500       .  S
O1129     Cu1137   1.998       .  S
O1129      C1139   1.276       .  A
O1130     Cu1137   2.000       .  S
O1130      C1140   1.278       .  A
O1131     Cu1137   2.005       .  S
O1131      C1141   1.277       .  A
O1132     Cu1137   2.000       .  S
O1132      C1142   1.276       .  A
O1133     Cu1138   2.004       .  S
O1133      C1142   1.277       .  A
O1134     Cu1138   2.057       .  S
O1134      C1141   1.283       .  A
O1135     Cu1138   2.048       .  S
O1135      C1140   1.281       .  A
O1136     Cu1138   1.999       .  S
O1136      C1139   1.276       .  A
Cu1137    Cu1138   2.365       .  S
C1139      C1700   1.487       .  S
C1142      C1260   1.485       .  S
O1143     Cu1151   2.005       .  S
O1143      C1153   1.277       .  A
O1144     Cu1151   2.028       .  S
O1144      C1154   1.277       .  A
O1145     Cu1151   2.035       .  S
O1145      C1155   1.282       .  A
O1146     Cu1151   2.006       .  S
O1146      C1156   1.279       .  A
O1147     Cu1152   1.993       .  S
O1147      C1156   1.274       .  A
O1148     Cu1152   1.988       .  S
O1148      C1155   1.273       .  A
O1149     Cu1152   1.998       .  S
O1149      C1154   1.279       .  A
O1150     Cu1152   1.978       .  S
O1150      C1153   1.274       .  A
Cu1151    Cu1152   2.368       .  S
C1153      C1323   1.474       .  S
C1156      C1773   1.488       .  S
C1157      C1158   1.534       .  S
C1157      C1163   1.530       .  S
C1157      C1161   1.551       .  S
C1157      C1250   1.558       .  S
C1158      H1165   1.088       .  S
C1158      C1159   1.360       .  D
C1159      C1160   1.533       .  S
C1160      C1164   1.539       .  S
C1160      C1162   1.554       .  S
C1160      H1166   1.110       .  S
C1161      H1167   1.085       .  S
C1161      C1162   1.381       .  D
C1162      C1343   1.505       .  S
C1163      H1168   1.085       .  S
C1163      C1164   1.355       .  D
C1164      C1207   1.459       .  S
C1169      C1170   1.526       .  S
C1169      C1175   1.535       .  S
C1169      C1173   1.555       .  S
C1169      C1253   1.562       .  S
C1170      H1177   1.087       .  S
C1170      C1171   1.355       .  D
C1171      C1172   1.546       .  S
C1171      C1220   1.474       .  S
C1172      C1176   1.522       .  S
C1172      C1174   1.558       .  S
C1172      H1178   1.107       .  S
C1173      H1179   1.083       .  S
C1173      C1174   1.388       .  D
C1174      C1280   1.512       .  S
C1175      H1180   1.088       .  S
C1175      C1176   1.357       .  D
O1181     Cu1189   2.002       .  S
O1181      C1191   1.279       .  A
O1182     Cu1189   2.047       .  S
O1182      C1192   1.281       .  A
O1183     Cu1189   2.048       .  S
O1183      C1193   1.281       .  A
O1184     Cu1189   1.998       .  S
O1184      C1194   1.277       .  A
O1185     Cu1190   1.990       .  S
O1185      C1194   1.275       .  A
O1186     Cu1190   2.012       .  S
O1186      C1193   1.280       .  A
O1187     Cu1190   1.985       .  S
O1187      C1192   1.276       .  A
O1188     Cu1190   1.987       .  S
O1188      C1191   1.273       .  A
Cu1189    Cu1190   2.369       .  S
C1191      C1683   1.476       .  S
C1194      C1263   1.473       .  S
O1195     Cu1203   1.969       .  S
O1195      C1205   1.270       .  A
O1196     Cu1203   1.965       .  S
O1196      C1206   1.272       .  A
O1197     Cu1203   1.981       .  S
O1197      C1207   1.276       .  A
O1198     Cu1203   1.993       .  S
O1198      C1208   1.278       .  A
O1199     Cu1204   1.968       .  S
O1199      C1208   1.271       .  A
O1200     Cu1204   1.993       .  S
O1200      C1207   1.274       .  A
O1201     Cu1204   2.027       .  S
O1201      C1206   1.280       .  A
O1202     Cu1204   2.002       .  S
O1202      C1205   1.278       .  A
Cu1203    Cu1204   2.375       .  S
C1205      C1313   1.480       .  S
C1208      C1823   1.461       .  S
O1209     Cu1217   1.977       .  S
O1209      C1219   1.273       .  A
O1210     Cu1217   1.982       .  S
O1210      C1220   1.277       .  A
O1211     Cu1217   1.992       .  S
O1211      C1221   1.275       .  A
O1212     Cu1217   2.004       .  S
O1212      C1222   1.276       .  A
O1213     Cu1218   1.998       .  S
O1213      C1222   1.278       .  A
O1214     Cu1218   2.026       .  S
O1214      C1221   1.280       .  A
O1215     Cu1218   2.024       .  S
O1215      C1220   1.277       .  A
O1216     Cu1218   2.003       .  S
O1216      C1219   1.277       .  A
Cu1217    Cu1218   2.365       .  S
C1219      C1733   1.481       .  S
C1222      C1273   1.484       .  S
O1223     Cu1231   2.025       .  S
O1223      C1233   1.279       .  A
O1224     Cu1231   1.995       .  S
O1224      C1234   1.276       .  A
O1225     Cu1231   2.020       .  S
O1225      C1235   1.280       .  A
O1226     Cu1231   2.038       .  S
O1226      C1236   1.280       .  A
O1227     Cu1232   1.997       .  S
O1227      C1236   1.277       .  A
O1228     Cu1232   1.987       .  S
O1228      C1235   1.274       .  A
O1229     Cu1232   1.992       .  S
O1229      C1234   1.276       .  A
O1230     Cu1232   2.014       .  S
O1230      C1233   1.278       .  A
Cu1231    Cu1232   2.364       .  S
C1234      C1333   1.471       .  S
C1235      C1740   1.482       .  S
C1237      C1238   1.538       .  S
C1237      C1243   1.535       .  S
C1237      C1241   1.538       .  S
C1237      C1553   1.543       .  S
C1238      H1245   1.086       .  S
C1238      C1239   1.369       .  D
C1239      C1240   1.546       .  S
C1239      C1903   1.493       .  S
C1240      C1244   1.519       .  S
C1240      C1242   1.539       .  S
C1240      H1246   1.109       .  S
C1241      H1247   1.085       .  S
C1241      C1242   1.359       .  D
C1243      H1248   1.083       .  S
C1243      C1244   1.364       .  D
C1249      C1250   1.423       .  A
C1249      C1254   1.423       .  A
C1249     Br1256   1.939       .  S
C1250      C1251   1.433       .  A
C1251      C1252   1.413       .  A
C1251     Br1258   1.957       .  S
C1252      C1253   1.436       .  A
C1252     Br1257   1.960       .  S
C1253      C1254   1.423       .  A
C1254     Br1255   1.930       .  S
C1259      C1260   1.416       .  A
C1259      C1264   1.405       .  A
C1259     Br1266   1.932       .  S
C1260      C1261   1.418       .  A
C1261      C1262   1.406       .  A
C1261     Br1268   1.933       .  S
C1262      C1263   1.409       .  A
C1262     Br1267   1.936       .  S
C1263      C1264   1.410       .  A
C1264     Br1265   1.938       .  S
C1269      C1270   1.417       .  A
C1269      C1274   1.410       .  A
C1269     Br1276   1.936       .  S
C1270      C1271   1.415       .  A
C1271      C1272   1.406       .  A
C1271     Br1278   1.932       .  S
C1272      C1273   1.412       .  A
C1272     Br1277   1.937       .  S
C1273      C1274   1.417       .  A
C1274     Br1275   1.938       .  S
C1279      C1280   1.412       .  A
C1279      C1284   1.418       .  A
C1279     Br1286   1.931       .  S
C1280      C1281   1.416       .  A
C1281      C1282   1.411       .  A
C1281     Br1288   1.918       .  S
C1282      C1283   1.423       .  A
C1282     Br1287   1.943       .  S
C1283      C1284   1.424       .  A
C1284     Br1285   1.933       .  S
C1289      C1290   1.413       .  A
C1289      C1294   1.417       .  A
C1289     Br1296   1.927       .  S
C1290      C1291   1.413       .  A
C1291      C1292   1.420       .  A
C1291     Br1298   1.927       .  S
C1292      C1293   1.415       .  A
C1292     Br1297   1.926       .  S
C1293      C1294   1.412       .  A
C1294     Br1295   1.928       .  S
C1299      C1300   1.416       .  A
C1299      C1304   1.408       .  A
C1299     Br1306   1.934       .  S
C1300      C1301   1.413       .  A
C1301      C1302   1.404       .  A
C1301     Br1308   1.936       .  S
C1302      C1303   1.412       .  A
C1302     Br1307   1.927       .  S
C1303      C1304   1.413       .  A
C1304     Br1305   1.934       .  S
C1309      C1310   1.407       .  A
C1309      C1314   1.395       .  A
C1309     Br1316   1.940       .  S
C1310      C1311   1.411       .  A
C1311      C1312   1.407       .  A
C1311     Br1318   1.933       .  S
C1312      C1313   1.418       .  A
C1312     Br1317   1.937       .  S
C1313      C1314   1.417       .  A
C1314     Br1315   1.936       .  S
C1319      C1320   1.419       .  A
C1319      C1324   1.403       .  A
C1319     Br1326   1.936       .  S
C1320      C1321   1.419       .  A
C1321      C1322   1.407       .  A
C1321     Br1328   1.937       .  S
C1322      C1323   1.411       .  A
C1322     Br1327   1.936       .  S
C1323      C1324   1.412       .  A
C1324     Br1325   1.942       .  S
C1329      C1330   1.413       .  A
C1329      C1334   1.404       .  A
C1329     Br1336   1.935       .  S
C1330      C1331   1.410       .  A
C1331      C1332   1.402       .  A
C1331     Br1338   1.936       .  S
C1332      C1333   1.412       .  A
C1332     Br1337   1.935       .  S
C1333      C1334   1.412       .  A
C1334     Br1335   1.934       .  S
C1339      C1340   1.414       .  A
C1339      C1344   1.416       .  A
C1339     Br1346   1.929       .  S
C1340      C1341   1.414       .  A
C1341      C1342   1.417       .  A
C1341     Br1348   1.922       .  S
C1342      C1343   1.410       .  A
C1342     Br1347   1.926       .  S
C1343      C1344   1.414       .  A
C1344     Br1345   1.929       .  S
C1349      C1350   1.423       .  A
C1349      C1354   1.414       .  A
C1349     Br1356   1.940       .  S
C1350      C1351   1.422       .  A
C1351      C1352   1.413       .  A
C1351     Br1358   1.937       .  S
C1352      C1353   1.417       .  A
C1352     Br1357   1.935       .  S
C1353      C1354   1.422       .  A
C1354     Br1355   1.940       .  S
C1359      C1360   1.429       .  A
C1359      C1364   1.415       .  A
C1359     Br1366   1.937       .  S
C1360      C1361   1.422       .  A
C1361      C1362   1.419       .  A
C1361     Br1368   1.934       .  S
C1362      C1363   1.413       .  A
C1362     Br1367   1.929       .  S
C1363      C1364   1.405       .  A
C1364     Br1365   1.930       .  S
C1369      C1370   1.412       .  A
C1369      C1374   1.409       .  A
C1369     Br1376   1.933       .  S
C1370      C1371   1.411       .  A
C1371      C1372   1.405       .  A
C1371     Br1378   1.936       .  S
C1372      C1373   1.411       .  A
C1372     Br1377   1.929       .  S
C1373      C1374   1.414       .  A
C1374     Br1375   1.932       .  S
C1379      C1380   1.413       .  A
C1379      C1384   1.403       .  A
C1379     Br1386   1.939       .  S
C1380      C1381   1.421       .  A
C1381      C1382   1.407       .  A
C1381     Br1388   1.944       .  S
C1382      C1383   1.423       .  A
C1382     Br1387   1.945       .  S
C1383      C1384   1.417       .  A
C1384     Br1385   1.941       .  S
C1389      C1390   1.414       .  A
C1389      C1394   1.403       .  A
C1389     Br1396   1.939       .  S
C1390      C1391   1.411       .  A
C1391      C1392   1.405       .  A
C1391     Br1398   1.934       .  S
C1392      C1393   1.413       .  A
C1392     Br1397   1.935   1_655  S
C1393      C1394   1.415       .  A
C1394     Br1395   1.936       .  S
C1399      C1400   1.408       .  A
C1399      C1404   1.402       .  A
C1399     Br1406   1.934       .  S
C1400      C1401   1.405       .  A
C1401      C1402   1.393       .  A
C1401     Br1408   1.936       .  S
C1402      C1403   1.407       .  A
C1402     Br1407   1.926   1_655  S
C1403      C1404   1.413       .  A
C1404     Br1405   1.931       .  S
C1409      C1410   1.421       .  A
C1409      C1414   1.417       .  A
C1409     Br1416   1.934       .  S
C1410      C1411   1.419       .  A
C1411      C1412   1.403       .  A
C1411     Br1418   1.942       .  S
C1412      C1413   1.420       .  A
C1412     Br1417   1.945       .  S
C1413      C1414   1.417       .  A
C1414     Br1415   1.934       .  S
C1419      C1420   1.412       .  A
C1419      C1424   1.409       .  A
C1419     Br1426   1.933       .  S
C1420      C1421   1.414       .  A
C1421      C1422   1.399       .  A
C1421     Br1428   1.938       .  S
C1422      C1423   1.413       .  A
C1422     Br1427   1.939       .  S
C1423      C1424   1.412       .  A
C1424     Br1425   1.930       .  S
C1429      C1430   1.406       .  A
C1429      C1434   1.404       .  A
C1429     Br1436   1.933       .  S
C1430      C1431   1.408       .  A
C1431      C1432   1.407       .  A
C1431     Br1438   1.925       .  S
C1432      C1433   1.408       .  A
C1432     Br1437   1.925       .  S
C1433      C1434   1.409       .  A
C1434     Br1435   1.919       .  S
C1439      C1440   1.416       .  A
C1439      C1444   1.406       .  A
C1439     Br1446   1.935       .  S
C1440      C1441   1.423       .  A
C1441      C1442   1.395       .  A
C1441     Br1448   1.944       .  S
C1442      C1443   1.404       .  A
C1442     Br1447   1.942       .  S
C1443      C1444   1.410       .  A
C1444     Br1445   1.933       .  S
C1449      C1450   1.431       .  A
C1449      C1454   1.422       .  A
C1449     Br1456   1.935       .  S
C1450      C1451   1.435       .  A
C1451      C1452   1.408       .  A
C1451     Br1458   1.950       .  S
C1452      C1453   1.415       .  A
C1452     Br1457   1.947       .  S
C1453      C1454   1.419       .  A
C1454     Br1455   1.941       .  S
C1459      C1460   1.429       .  A
C1459      C1464   1.422       .  A
C1459     Br1466   1.934       .  S
C1460      C1461   1.433       .  A
C1461      C1462   1.413       .  A
C1461     Br1468   1.938   1_655  S
C1462      C1463   1.407       .  A
C1462     Br1467   1.925       .  S
C1463      C1464   1.411       .  A
C1464     Br1465   1.927       .  S
C1469      C1470   1.406       .  A
C1469      C1474   1.399       .  A
C1469     Br1476   1.935       .  S
C1470      C1471   1.408       .  A
C1471      C1472   1.402       .  A
C1471     Br1478   1.930       .  S
C1472      C1473   1.410       .  A
C1472     Br1477   1.930       .  S
C1473      C1474   1.414       .  A
C1474     Br1475   1.936       .  S
C1479      C1480   1.418       .  A
C1479      C1484   1.408       .  A
C1479     Br1486   1.939       .  S
C1480      C1481   1.414       .  A
C1481      C1482   1.408       .  A
C1481     Br1488   1.935       .  S
C1482      C1483   1.414       .  A
C1482     Br1487   1.935       .  S
C1483      C1484   1.418       .  A
C1484     Br1485   1.940       .  S
C1489      C1490   1.410       .  A
C1489      C1494   1.407       .  A
C1489     Br1496   1.926   1_655  S
C1490      C1491   1.395       .  A
C1491      C1492   1.383       .  A
C1491     Br1498   1.919       .  S
C1492      C1493   1.396       .  A
C1492     Br1497   1.906       .  S
C1493      C1494   1.406       .  A
C1494     Br1495   1.925       .  S
C1499      C1500   1.421       .  A
C1499      C1504   1.405       .  A
C1499     Br1506   1.944       .  S
C1500      C1501   1.417       .  A
C1501      C1502   1.417       .  A
C1501     Br1508   1.935       .  S
C1502      C1503   1.424       .  A
C1502     Br1507   1.936       .  S
C1503      C1504   1.419       .  A
C1504     Br1505   1.943       .  S
C1509      C1510   1.412       .  A
C1509      C1514   1.405       .  A
C1509     Br1516   1.934       .  S
C1510      C1511   1.415       .  A
C1511      C1512   1.404       .  A
C1511     Br1518   1.939       .  S
C1512      C1513   1.415       .  A
C1512     Br1517   1.937       .  S
C1513      C1514   1.411       .  A
C1514     Br1515   1.935       .  S
C1519      C1520   1.412       .  A
C1519      C1524   1.400       .  A
C1519     Br1526   1.930       .  S
C1520      C1521   1.416       .  A
C1521      C1522   1.405       .  A
C1521     Br1528   1.936       .  S
C1522      C1523   1.410       .  A
C1522     Br1527   1.934       .  S
C1523      C1524   1.407       .  A
C1524     Br1525   1.937   1_655  S
C1529      C1530   1.414       .  A
C1529      C1534   1.406       .  A
C1529     Br1536   1.936       .  S
C1530      C1531   1.415       .  A
C1531      C1532   1.411       .  A
C1531     Br1538   1.935       .  S
C1532      C1533   1.414       .  A
C1532     Br1537   1.933       .  S
C1533      C1534   1.415       .  A
C1534     Br1535   1.936       .  S
C1539      C1540   1.422       .  A
C1539      C1544   1.409       .  A
C1539     Br1546   1.941       .  S
C1540      C1541   1.421       .  A
C1541      C1542   1.414       .  A
C1541     Br1548   1.938       .  S
C1542      C1543   1.417       .  A
C1542     Br1547   1.937       .  S
C1543      C1544   1.420       .  A
C1544     Br1545   1.943       .  S
C1549      C1550   1.408       .  A
C1549      C1554   1.410       .  A
C1549     Br1556   1.933       .  S
C1550      C1551   1.405       .  A
C1551      C1552   1.405       .  A
C1551     Br1558   1.929       .  S
C1552      C1553   1.422       .  A
C1552     Br1557   1.939       .  S
C1553      C1554   1.424       .  A
C1554     Br1555   1.936       .  S
C1559      C1560   1.421       .  A
C1559      C1564   1.416       .  A
C1559     Br1566   1.934       .  S
C1560      C1561   1.421       .  A
C1561      C1562   1.401       .  A
C1561     Br1568   1.942       .  S
C1562      C1563   1.410       .  A
C1562     Br1567   1.918       .  S
C1563      C1564   1.418       .  A
C1564     Br1565   1.936       .  S
C1569      C1570   1.417       .  A
C1569      C1574   1.420       .  A
C1569     Br1576   1.928       .  S
C1570      C1571   1.415       .  A
C1571      C1572   1.426       .  A
C1571     Br1578   1.928       .  S
C1572      C1573   1.419       .  A
C1572     Br1577   1.923       .  S
C1573      C1574   1.413       .  A
C1574     Br1575   1.928       .  S
C1579      C1580   1.410       .  A
C1579      C1584   1.409       .  A
C1579     Br1586   1.925       .  S
C1580      C1581   1.410       .  A
C1581      C1582   1.403       .  A
C1581     Br1588   1.934       .  S
C1582      C1583   1.412       .  A
C1582     Br1587   1.934       .  S
C1583      C1584   1.411       .  A
C1584     Br1585   1.925       .  S
C1589      C1590   1.414       .  A
C1589      C1594   1.419       .  A
C1589     Br1596   1.927       .  S
C1590      C1591   1.415       .  A
C1591      C1592   1.421       .  A
C1591     Br1598   1.926       .  S
C1592      C1593   1.412       .  A
C1592     Br1597   1.926       .  S
C1593      C1594   1.414       .  A
C1594     Br1595   1.927       .  S
C1599      C1600   1.413       .  A
C1599      C1604   1.409       .  A
C1599     Br1606   1.934       .  S
C1600      C1601   1.411       .  A
C1601      C1602   1.399       .  A
C1601     Br1608   1.935       .  S
C1602      C1603   1.414       .  A
C1602     Br1607   1.938       .  S
C1603      C1604   1.415       .  A
C1604     Br1605   1.934       .  S
C1609      C1610   1.409       .  A
C1609      C1614   1.410       .  A
C1609     Br1616   1.932       .  S
C1610      C1611   1.416       .  A
C1611      C1612   1.403       .  A
C1611     Br1618   1.941       .  S
C1612      C1613   1.413       .  A
C1612     Br1617   1.935       .  S
C1613      C1614   1.415       .  A
C1614     Br1615   1.930       .  S
C1619      C1620   1.409       .  A
C1619      C1624   1.401       .  A
C1619     Br1626   1.930       .  S
C1620      C1621   1.408       .  A
C1621      C1622   1.396       .  A
C1621     Br1628   1.933       .  S
C1622      C1623   1.406       .  A
C1622     Br1627   1.935       .  S
C1623      C1624   1.408       .  A
C1624     Br1625   1.929       .  S
C1629      C1630   1.411       .  A
C1629      C1634   1.412       .  A
C1629     Br1636   1.929       .  S
C1630      C1631   1.407       .  A
C1631      C1632   1.402       .  A
C1631     Br1638   1.937       .  S
C1632      C1633   1.411       .  A
C1632     Br1637   1.921       .  S
C1633      C1634   1.416       .  A
C1634     Br1635   1.931       .  S
C1639      C1640   1.421       .  A
C1639      C1644   1.401       .  A
C1639     Br1646   1.941       .  S
C1640      C1641   1.421       .  A
C1641      C1642   1.410       .  A
C1641     Br1648   1.931       .  S
C1642      C1643   1.408       .  A
C1642     Br1647   1.933       .  S
C1643      C1644   1.410       .  A
C1644     Br1645   1.936       .  S
C1649      C1650   1.414       .  A
C1649      C1654   1.414       .  A
C1649     Br1656   1.934       .  S
C1650      C1651   1.409       .  A
C1651      C1652   1.400       .  A
C1651     Br1658   1.941       .  S
C1652      C1653   1.421       .  A
C1652     Br1657   1.936       .  S
C1653      C1654   1.420       .  A
C1654     Br1655   1.936       .  S
C1659      C1660   1.411       .  A
C1659      C1664   1.414       .  A
C1659     Br1666   1.934       .  S
C1660      C1661   1.420       .  A
C1661      C1662   1.410       .  A
C1661     Br1668   1.943       .  S
C1662      C1663   1.419       .  A
C1662     Br1667   1.939       .  S
C1663      C1664   1.420       .  A
C1664     Br1665   1.931       .  S
C1669      C1670   1.422       .  A
C1669      C1674   1.409       .  A
C1669     Br1676   1.938       .  S
C1670      C1671   1.420       .  A
C1671      C1672   1.410       .  A
C1671     Br1678   1.936       .  S
C1672      C1673   1.418       .  A
C1672     Br1677   1.939       .  S
C1673      C1674   1.415       .  A
C1674     Br1675   1.938       .  S
C1679      C1680   1.410       .  A
C1679      C1684   1.404       .  A
C1679     Br1686   1.932       .  S
C1680      C1681   1.417       .  A
C1681      C1682   1.406       .  A
C1681     Br1688   1.938       .  S
C1682      C1683   1.414       .  A
C1682     Br1687   1.938       .  S
C1683      C1684   1.411       .  A
C1684     Br1685   1.934       .  S
C1689      C1690   1.413       .  A
C1689      C1694   1.403       .  A
C1689     Br1696   1.929       .  S
C1690      C1691   1.412       .  A
C1691      C1692   1.404       .  A
C1691     Br1698   1.936       .  S
C1692      C1693   1.415       .  A
C1692     Br1697   1.935       .  S
C1693      C1694   1.409       .  A
C1694     Br1695   1.936       .  S
C1699      C1700   1.416       .  A
C1699      C1704   1.409       .  A
C1699     Br1706   1.937       .  S
C1700      C1701   1.414       .  A
C1701      C1702   1.405       .  A
C1701     Br1708   1.937       .  S
C1702      C1703   1.420       .  A
C1702     Br1707   1.938       .  S
C1703      C1704   1.418       .  A
C1704     Br1705   1.937       .  S
C1709      C1710   1.416       .  A
C1709      C1714   1.409       .  A
C1709     Br1716   1.938       .  S
C1710      C1711   1.417       .  A
C1711      C1712   1.409       .  A
C1711     Br1718   1.940       .  S
C1712      C1713   1.419       .  A
C1712     Br1717   1.937       .  S
C1713      C1714   1.419       .  A
C1714     Br1715   1.940       .  S
C1719      C1720   1.414       .  A
C1719      C1724   1.403       .  A
C1719     Br1726   1.930       .  S
C1720      C1721   1.412       .  A
C1721      C1722   1.407       .  A
C1721     Br1728   1.930       .  S
C1722      C1723   1.412       .  A
C1722     Br1727   1.935       .  S
C1723      C1724   1.410       .  A
C1724     Br1725   1.936       .  S
C1729      C1730   1.420       .  A
C1729      C1734   1.407       .  A
C1729     Br1736   1.938       .  S
C1730      C1731   1.418       .  A
C1731      C1732   1.404       .  A
C1731     Br1738   1.939       .  S
C1732      C1733   1.416       .  A
C1732     Br1737   1.942       .  S
C1733      C1734   1.414       .  A
C1734     Br1735   1.939       .  S
C1739      C1740   1.414       .  A
C1739      C1744   1.406       .  A
C1739     Br1746   1.933       .  S
C1740      C1741   1.417       .  A
C1741      C1742   1.405       .  A
C1741     Br1748   1.936       .  S
C1742      C1743   1.412       .  A
C1742     Br1747   1.939       .  S
C1743      C1744   1.411       .  A
C1744     Br1745   1.936       .  S
C1749      C1750   1.409       .  A
C1749      C1754   1.403       .  A
C1749     Br1756   1.934       .  S
C1750      C1751   1.414       .  A
C1751      C1752   1.408       .  A
C1751     Br1758   1.932       .  S
C1752      C1753   1.413       .  A
C1752     Br1757   1.933       .  S
C1753      C1754   1.412       .  A
C1754     Br1755   1.936       .  S
C1759      C1760   1.416       .  A
C1759      C1764   1.406       .  A
C1759     Br1766   1.934       .  S
C1760      C1761   1.412       .  A
C1761      C1762   1.409       .  A
C1761     Br1768   1.932       .  S
C1762      C1763   1.411       .  A
C1762     Br1767   1.934       .  S
C1763      C1764   1.412       .  A
C1764     Br1765   1.935       .  S
C1769      C1770   1.418       .  A
C1769      C1774   1.408       .  A
C1769     Br1776   1.938       .  S
C1770      C1771   1.417       .  A
C1771      C1772   1.410       .  A
C1771     Br1778   1.931       .  S
C1772      C1773   1.414       .  A
C1772     Br1777   1.938       .  S
C1773      C1774   1.417       .  A
C1774     Br1775   1.940       .  S
C1779      C1780   1.420       .  A
C1779      C1784   1.408       .  A
C1779     Br1786   1.937       .  S
C1780      C1781   1.421       .  A
C1781      C1782   1.409       .  A
C1781     Br1788   1.934       .  S
C1782      C1783   1.412       .  A
C1782     Br1787   1.938       .  S
C1783      C1784   1.414       .  A
C1784     Br1785   1.936       .  S
C1789      C1790   1.407       .  A
C1789      C1794   1.398       .  A
C1789     Br1796   1.923       .  S
C1790      C1791   1.412       .  A
C1791      C1792   1.402       .  A
C1791     Br1798   1.926       .  S
C1792      C1793   1.406       .  A
C1792     Br1797   1.931       .  S
C1793      C1794   1.406       .  A
C1794     Br1795   1.935       .  S
C1799      C1800   1.414       .  A
C1799      C1804   1.405       .  A
C1799     Br1806   1.937       .  S
C1800      C1801   1.412       .  A
C1801      C1802   1.411       .  A
C1801     Br1808   1.933       .  S
C1802      C1803   1.415       .  A
C1802     Br1807   1.933       .  S
C1803      C1804   1.415       .  A
C1804     Br1805   1.931       .  S
C1809      C1810   1.413       .  A
C1809      C1814   1.403       .  A
C1809     Br1816   1.934       .  S
C1810      C1811   1.419       .  A
C1811      C1812   1.396       .  A
C1811     Br1818   1.938       .  S
C1812      C1813   1.408       .  A
C1812     Br1817   1.943       .  S
C1813      C1814   1.410       .  A
C1814     Br1815   1.933       .  S
C1819      C1820   1.403       .  A
C1819      C1824   1.392       .  A
C1819     Br1826   1.918       .  S
C1820      C1821   1.411       .  A
C1821      C1822   1.407       .  A
C1821     Br1828   1.931       .  S
C1822      C1823   1.415       .  A
C1822     Br1827   1.933       .  S
C1823      C1824   1.405       .  A
C1824     Br1825   1.931       .  S
C1829      C1830   1.418       .  A
C1829      C1834   1.406       .  A
C1829     Br1836   1.939       .  S
C1830      C1831   1.416       .  A
C1831      C1832   1.404       .  A
C1831     Br1838   1.929       .  S
C1832      C1833   1.411       .  A
C1832     Br1837   1.938       .  S
C1833      C1834   1.415       .  A
C1834     Br1835   1.939       .  S
C1839      C1840   1.414       .  A
C1839      C1844   1.404       .  A
C1839     Br1846   1.937       .  S
C1840      C1841   1.413       .  A
C1841      C1842   1.400       .  A
C1841     Br1848   1.942       .  S
C1842      C1843   1.418       .  A
C1842     Br1847   1.941       .  S
C1843      C1844   1.418       .  A
C1844     Br1845   1.939       .  S
C1849      C1850   1.419       .  A
C1849      C1854   1.413       .  A
C1849     Br1856   1.940       .  S
C1850      C1851   1.415       .  A
C1851      C1852   1.408       .  A
C1851     Br1858   1.935       .  S
C1852      C1853   1.420       .  A
C1852     Br1857   1.938       .  S
C1853      C1854   1.422       .  A
C1854     Br1855   1.940       .  S
C1859      C1860   1.426       .  A
C1859      C1864   1.414       .  A
C1859     Br1866   1.950       .  S
C1860      C1861   1.427       .  A
C1861      C1862   1.430       .  A
C1861     Br1868   1.936       .  S
C1862      C1863   1.427       .  A
C1862     Br1867   1.936       .  S
C1863      C1864   1.430       .  A
C1864     Br1865   1.948       .  S
C1869      C1870   1.418       .  A
C1869      C1874   1.416       .  A
C1869     Br1876   1.935       .  S
C1870      C1871   1.420       .  A
C1871      C1872   1.421       .  A
C1871     Br1878   1.920       .  S
C1872      C1873   1.412       .  A
C1872     Br1877   1.918       .  S
C1873      C1874   1.417       .  A
C1874     Br1875   1.930       .  S
C1879      C1880   1.426       .  A
C1879      C1884   1.416       .  A
C1879     Br1886   1.935       .  S
C1880      C1881   1.425       .  A
C1881      C1882   1.418       .  A
C1881     Br1888   1.936       .  S
C1882      C1883   1.411       .  A
C1882     Br1887   1.929       .  S
C1883      C1884   1.407       .  A
C1884     Br1885   1.929       .  S
C1889      C1890   1.414       .  A
C1889      C1894   1.418       .  A
C1889     Br1896   1.928       .  S
C1890      C1891   1.409       .  A
C1891      C1892   1.414       .  A
C1891     Br1898   1.928       .  S
C1892      C1893   1.413       .  A
C1892     Br1897   1.922       .  S
C1893      C1894   1.414       .  A
C1894     Br1895   1.929       .  S
C1899      C1900   1.430       .  A
C1899      C1904   1.409       .  A
C1899     Br1906   1.933       .  S
C1900      C1901   1.428       .  A
C1901      C1902   1.418       .  A
C1901     Br1908   1.937       .  S
C1902      C1903   1.410       .  A
C1902     Br1907   1.930       .  S
C1903      C1904   1.400       .  A
C1904     Br1905   1.931       .  S
C1909      C1910   1.414       .  A
C1909      C1914   1.416       .  A
C1909     Br1916   1.930       .  S
C1910      C1911   1.414       .  A
C1911      C1912   1.417       .  A
C1911     Br1918   1.917       .  S
C1912      C1913   1.429       .  A
C1912     Br1917   1.944       .  S
C1913      C1914   1.420       .  A
C1914     Br1915   1.923       .  S
C1919      C1920   1.428       .  A
C1919      C1924   1.418       .  A
C1919     Br1926   1.941       .  S
C1920      C1921   1.422       .  A
C1921      C1922   1.402       .  A
C1921     Br1928   1.949       .  S
C1922      C1923   1.426       .  A
C1922     Br1927   1.952       .  S
C1923      C1924   1.418       .  A
C1924     Br1925   1.936       .  S
C1929      C1930   1.407       .  A
C1929      C1934   1.409       .  A
C1929     Br1936   1.929       .  S
C1930      C1931   1.405       .  A
C1931      C1932   1.410       .  A
C1931     Br1938   1.931       .  S
C1932      C1933   1.426       .  A
C1932     Br1937   1.937       .  S
C1933      C1934   1.423       .  A
C1934     Br1935   1.938       .  S
C1939      C1940   1.421       .  A
C1939      C1944   1.419       .  A
C1939     Br1946   1.939       .  S
C1940      C1941   1.421       .  A
C1941      C1942   1.410       .  A
C1941     Br1948   1.951       .  S
C1942      C1943   1.434       .  A
C1942     Br1947   1.950       .  S
C1943      C1944   1.423       .  A
C1944     Br1945   1.937       .  S
C1949      C1950   1.430       .  A
C1949      C1954   1.412       .  A
C1949     Br1956   1.940       .  S
C1950      C1951   1.431       .  A
C1951      C1952   1.412       .  A
C1951     Br1958   1.936       .  S
C1952      C1953   1.404       .  A
C1952     Br1957   1.935       .  S
C1953      C1954   1.404       .  A
C1954     Br1955   1.931       .  S
C1959      C1960   1.421       .  A
C1959      C1964   1.417       .  A
C1959     Br1966   1.935       .  S
C1960      C1961   1.421       .  A
C1961      C1962   1.416       .  A
C1961     Br1968   1.934       .  S
C1962      C1963   1.419       .  A
C1962     Br1967   1.936       .  S
C1963      C1964   1.419       .  A
C1964     Br1965   1.935       .  S
C1969      C1970   1.412       .  A
C1969      C1974   1.413       .  A
C1969     Br1976   1.928       .  S
C1970      C1971   1.413       .  A
C1971      C1972   1.410       .  A
C1971     Br1978   1.923       .  S
C1972      C1973   1.408       .  A
C1972     Br1977   1.929       .  S
C1973      C1974   1.411       .  A
C1974     Br1975   1.928       .  S
C1979      C1980   1.414       .  A
C1979      C1984   1.421       .  A
C1979     Br1986   1.926       .  S
C1980      C1981   1.415       .  A
C1981      C1982   1.423       .  A
C1981     Br1988   1.927       .  S
C1982      C1983   1.416       .  A
C1982     Br1987   1.927       .  S
C1983      C1984   1.414       .  A
C1984     Br1985   1.925       .  S
C1989      C1990   1.431       .  A
C1989      C1994   1.419       .  A
C1989     Br1996   1.938       .  S
C1990      C1991   1.429       .  A
C1991      C1992   1.425       .  A
C1991     Br1998   1.935       .  S
C1992      C1993   1.414       .  A
C1992     Br1997   1.928       .  S
C1993      C1994   1.409       .  A
C1994     Br1995   1.932       .  S
C1999      C2000   1.419       .  A
C1999      C2004   1.409       .  A
C1999     Br2006   1.936       .  S
C2000      C2001   1.411       .  A
C2001      C2002   1.412       .  A
C2001     Br2008   1.932       .  S
C2002      C2003   1.424       .  A
C2002     Br2007   1.937       .  S
C2003      C2004   1.418       .  A
C2004     Br2005   1.935       .  S
C2009      C2010   1.421       .  A
C2009      C2014   1.410       .  A
C2009     Br2016   1.946       .  S
C2010      C2011   1.426       .  A
C2011      C2012   1.422       .  A
C2011     Br2018   1.939       .  S
C2012      C2013   1.421       .  A
C2012     Br2017   1.936       .  S
C2013      C2014   1.431       .  A
C2014     Br2015   1.950       .  S
C2019      C2020   1.420       .  A
C2019      C2024   1.421       .  A
C2019     Br2026   1.937       .  S
C2020      C2021   1.418       .  A
C2021      C2022   1.415       .  A
C2021     Br2028   1.925       .  S
C2022      C2023   1.428       .  A
C2022     Br2027   1.946       .  S
C2023      C2024   1.423       .  A
C2024     Br2025   1.934       .  S
C2029      C2030   1.412       .  A
C2029      C2034   1.411       .  A
C2029     Br2036   1.928       .  S
C2030      C2031   1.412       .  A
C2031      C2032   1.418       .  A
C2031     Br2038   1.928       .  S
C2032      C2033   1.416       .  A
C2032     Br2037   1.926       .  S
C2033      C2034   1.409       .  A
C2034     Br2035   1.928       .  S
C2039      C2040   1.418       .  A
C2039      C2044   1.425       .  A
C2039     Br2046   1.938       .  S
C2040      C2041   1.420       .  A
C2041      C2042   1.414       .  A
C2041     Br2048   1.951       .  S
C2042      C2043   1.440       .  A
C2042     Br2047   1.951       .  S
C2043      C2044   1.432       .  A
C2044     Br2045   1.930       .  S
C2049      C2050   1.421       .  A
C2049      C2054   1.419       .  A
C2049     Br2056   1.939       .  S
C2050      C2051   1.419       .  A
C2051      C2052   1.416       .  A
C2051     Br2058   1.937       .  S
C2052      C2053   1.424       .  A
C2052     Br2057   1.938       .  S
C2053      C2054   1.424       .  A
C2054     Br2055   1.935       .  S
C2059      C2060   1.423       .  A
C2059      C2064   1.407       .  A
C2059     Br2066   1.938       .  S
C2060      C2061   1.420       .  A
C2061      C2062   1.412       .  A
C2061     Br2068   1.936       .  S
C2062      C2063   1.409       .  A
C2062     Br2067   1.930       .  S
C2063      C2064   1.405       .  A
C2064     Br2065   1.930       .  S
C2069      C2070   1.416       .  A
C2069      C2074   1.416       .  A
C2069     Br2076   1.937       .  S
C2070      C2071   1.418       .  A
C2071      C2072   1.419       .  A
C2071     Br2078   1.921       .  S
C2072      C2073   1.430       .  A
C2072     Br2077   1.945       .  S
C2073      C2074   1.425       .  A
C2074     Br2075   1.933       .  S
C2079      C2080   1.412       .  A
C2079      C2084   1.417       .  A
C2079     Br2086   1.926       .  S
C2080      C2081   1.413       .  A
C2081      C2082   1.418       .  A
C2081     Br2088   1.926       .  S
C2082      C2083   1.412       .  A
C2082     Br2087   1.928       .  S
C2083      C2084   1.413       .  A
C2084     Br2085   1.925       .  S
C2089      C2090   1.431       .  A
C2089      C2094   1.416       .  A
C2089     Br2096   1.937       .  S
C2090      C2091   1.436       .  A
C2091      C2092   1.413       .  A
C2091     Br2098   1.937       .  S
C2092      C2093   1.405       .  A
C2092     Br2097   1.929       .  S
C2093      C2094   1.410       .  A
C2094     Br2095   1.934       .  S
C2099      C2100   1.423       .  A
C2099      C2104   1.424       .  A
C2099     Br2106   1.936       .  S
C2100      C2101   1.414       .  A
C2101      C2102   1.423       .  A
C2101     Br2108   1.928       .  S
C2102      C2103   1.422       .  A
C2102     Br2107   1.922       .  S
C2103      C2104   1.424       .  A
C2104     Br2105   1.936       .  S
C2109      C2110   1.414       .  A
C2109      C2114   1.417       .  A
C2109     Br2116   1.928       .  S
C2110      C2111   1.412       .  A
C2111      C2112   1.417       .  A
C2111     Br2118   1.926       .  S
C2112      C2113   1.413       .  A
C2112     Br2117   1.923       .  S
C2113      C2114   1.414       .  A
C2114     Br2115   1.928       .  S
C2119      C2120   1.418       .  A
C2119      C2124   1.410       .  A
C2119     Br2126   1.927       .  S
C2120      C2121   1.424       .  A
C2121      C2122   1.423       .  A
C2121     Br2128   1.924       .  S
C2122      C2123   1.422       .  A
C2122     Br2127   1.938       .  S
C2123      C2124   1.424       .  A
C2124     Br2125   1.941       .  S
C2129      C2130   1.417       .  A
C2129      C2134   1.415       .  A
C2129     Br2136   1.930       .  S
C2130      C2131   1.431       .  A
C2131      C2132   1.419       .  A
C2131     Br2138   1.939       .  S
C2132      C2133   1.421       .  A
C2132     Br2137   1.943       .  S
C2133      C2134   1.427       .  A
C2134     Br2135   1.939       .  S
C2139      C2140   1.417       .  A
C2139      C2144   1.413       .  A
C2139     Br2146   1.936       .  S
C2140      C2141   1.431       .  A
C2141      C2142   1.411       .  A
C2141     Br2148   1.943       .  S
C2142      C2143   1.413       .  A
C2142     Br2147   1.940       .  S
C2143      C2144   1.422       .  A
C2144     Br2145   1.938       .  S
C2149      C2150   1.409       .  A
C2149      C2154   1.402       .  A
C2149     Br2156   1.930       .  S
C2150      C2151   1.426       .  A
C2151      C2152   1.415       .  A
C2151     Br2158   1.943       .  S
C2152      C2153   1.419       .  A
C2152     Br2157   1.934       .  S
C2153      C2154   1.421       .  A
C2154     Br2155   1.939       .  S
C2159      C2160   1.427       .  A
C2159      C2164   1.423       .  A
C2159     Br2166   1.938       .  S
C2160      C2161   1.415       .  A
C2161      C2162   1.409       .  A
C2161     Br2168   1.931       .  S
C2162      C2163   1.423       .  A
C2162     Br2167   1.939       .  S
C2163      C2164   1.420       .  A
C2164     Br2165   1.935       .  S
C2169      C2170   1.415       .  A
C2169      C2174   1.420       .  A
C2169     Br2176   1.926       .  S
C2170      C2171   1.414       .  A
C2171      C2172   1.421       .  A
C2171     Br2178   1.928       .  S
C2172      C2173   1.415       .  A
C2172     Br2177   1.926       .  S
C2173      C2174   1.413       .  A
C2174     Br2175   1.926       .  S
C2179      C2180   1.420       .  A
C2179      C2184   1.422       .  A
C2179     Br2186   1.936       .  S
C2180      C2181   1.427       .  A
C2181      C2182   1.407       .  A
C2181     Br2188   1.939       .  S
C2182      C2183   1.411       .  A
C2182     Br2187   1.929       .  S
C2183      C2184   1.430       .  A
C2184     Br2185   1.934       .  S
C2189      C2190   1.418       .  A
C2189      C2194   1.417       .  A
C2189     Br2196   1.934       .  S
C2190      C2191   1.424       .  A
C2191      C2192   1.408       .  A
C2191     Br2198   1.945       .  S
C2192      C2193   1.412       .  A
C2192     Br2197   1.917       .  S
C2193      C2194   1.420       .  A
C2194     Br2195   1.934       .  S
C2199      C2200   1.411       .  A
C2199      C2204   1.419       .  A
C2199     Br2206   1.929       .  S
C2200      C2201   1.408       .  A
C2201      C2202   1.419       .  A
C2201     Br2208   1.929       .  S
C2202      C2203   1.429       .  A
C2202     Br2207   1.935       .  S
C2203      C2204   1.425       .  A
C2204     Br2205   1.935       .  S
