geometry optimzed in LAMMPS
_audit_creation_date              2020-11-30 
_audit_creation_method            'lammps2cif' 
_symmetry_space_group_name_H-M    'P1' 
_symmetry_Int_Tables_number       1 
_symmetry_cell_setting            triclinic 
loop_ 
_symmetry_equiv_pos_as_xyz 
  x,y,z 
_cell_length_a                    54.553397 
_cell_length_b                    54.63300027536595 
_cell_length_c                    39.68288507900913 
_cell_angle_alpha                 90.03189148665514 
_cell_angle_beta                  89.52265328328592 
_cell_angle_gamma                 90.06176611625949 
loop_ 
_atom_site_label 
_atom_site_type_symbol 
_atom_site_fract_x 
_atom_site_fract_y 
_atom_site_fract_z 
_atom_site_charge 
N1          N  0.06126023  0.57435839  0.81063775    -0.27500
N2          N  0.05240105  0.56277889  0.83731143    -0.35400
C3          C  0.06563941  0.54250170  0.84255497     0.00800
C4          C  0.08361862  0.54113026  0.81797202     0.06900
C5          C  0.08045690  0.56166997  0.79816911    -0.06200
H6          H  0.06385879  0.53092028  0.86455376     0.07500
H7          H  0.09254597  0.56809929  0.77830812     0.08700
Cu8        Cu  0.02730412  0.57763395  0.87075425     0.44200
Cu9        Cu  0.04969163  0.60901489  0.79731506     0.42000
Cu10       Cu  0.01038202  0.63991863  0.86042968     0.43900
N11         N  0.00938224  0.59748644  0.90776858    -0.34900
N12         N  0.00336546  0.62074612  0.90432423    -0.29100
C13         C  0.99582855  0.62954960  0.93434333    -0.05200
C14         C  0.99734480  0.61087087  0.95777825     0.07000
C15         C  0.00585174  0.59079214  0.93998508     0.00800
H16         H  0.99141490  0.64853243  0.93920872     0.08400
H17         H  0.01104269  0.57320186  0.95017316     0.07500
N18         N  0.02257651  0.65539877  0.81580986    -0.36300
N19         N  0.03634599  0.64425816  0.79287322    -0.28500
C20         C  0.04116589  0.65994668  0.76759458    -0.03700
C21         C  0.03020867  0.68202426  0.77530945     0.04900
C22         C  0.01851953  0.67851028  0.80590940     0.03000
H23         H  0.05247430  0.65581729  0.74580143     0.08100
H24         H  0.00800410  0.69181719  0.82012060     0.06900
N25         N  0.12604085  0.49103796  0.82180558    -0.27500
N26         N  0.13298554  0.50422126  0.84795568    -0.35400
C27         C  0.12084424  0.52554948  0.84781736     0.00800
C28         C  0.10558787  0.52594023  0.82023308     0.06900
C29         C  0.10924353  0.50370955  0.80432484    -0.06200
H30         H  0.12069166  0.53838821  0.86859514     0.07500
H31         H  0.09828341  0.49607694  0.78428484     0.08700
Cu32       Cu  0.15138792  0.48995577  0.88872029     0.44200
Cu33       Cu  0.13401185  0.45418810  0.81739938     0.42000
Cu34       Cu  0.15207427  0.42373787  0.89469497     0.43900
N35         N  0.15834180  0.47117236  0.93277892    -0.34900
N36         N  0.15803138  0.44703736  0.93525637    -0.29100
C37         C  0.15920194  0.44082880  0.96800100    -0.05200
C38         C  0.16010868  0.46207843  0.98696295     0.07000
C39         C  0.15965109  0.48094743  0.96380311     0.00800
H40         H  0.15783464  0.42228108  0.97736127     0.08400
H41         H  0.15851756  0.50033472  0.96915203     0.07500
N42         N  0.14314507  0.40531336  0.85058425    -0.36300
N43         N  0.13715505  0.41665321  0.82242409    -0.28500
C44         C  0.13130790  0.39996765  0.79900386    -0.03700
C45         C  0.13328860  0.37686095  0.81305695     0.04900
C46         C  0.14115004  0.38098577  0.84575374     0.03000
H47         H  0.12571322  0.40453141  0.77370899     0.08100
H48         H  0.14433300  0.36736355  0.86500005     0.06900
N49         N  0.60238037  0.07904848  0.81718992    -0.27500
N50         N  0.58917718  0.08773310  0.84252262    -0.35400
C51         C  0.56764974  0.07582916  0.84380235     0.00800
C52         C  0.56717808  0.05893744  0.81790699     0.06900
C53         C  0.58962573  0.06121948  0.80174677    -0.06200
H54         H  0.55438632  0.07757874  0.86408412     0.07500
H55         H  0.59697233  0.04939114  0.78226517     0.08700
Cu56       Cu  0.60348096  0.11039431  0.87914802     0.44200
Cu57       Cu  0.63868878  0.08878139  0.81003197     0.42000
Cu58       Cu  0.66947055  0.11920351  0.88033971     0.43900
N59         N  0.62229835  0.12481660  0.91955616    -0.34900
N60         N  0.64635589  0.12765595  0.92056025    -0.29100
C61         C  0.65281599  0.13342055  0.95226836    -0.05200
C62         C  0.63180693  0.13399352  0.97209225     0.07000
C63         C  0.61284586  0.12861409  0.95044616     0.00800
H64         H  0.67154323  0.13499543  0.96076603     0.08400
H65         H  0.59382069  0.12559388  0.95714447     0.07500
N66         N  0.68720964  0.10686839  0.83700984    -0.36300
N67         N  0.67576988  0.09647849  0.81146325    -0.28500
C68         C  0.69233986  0.08951897  0.78822417    -0.03700
C69         C  0.71547974  0.09532881  0.79979542     0.04900
C70         C  0.71148707  0.10662410  0.83066129     0.03000
H71         H  0.68772615  0.08040264  0.76493390     0.08100
H72         H  0.72525531  0.11326177  0.84788622     0.06900
N73         N  0.51520663  0.01804922  0.81449863    -0.27500
N74         N  0.52908518  0.00696312  0.83695443    -0.35400
C75         C  0.55068983  0.01863112  0.83885399     0.00800
C76         C  0.55056323  0.03791915  0.81643010     0.06900
C77         C  0.52770079  0.03721202  0.80160446    -0.06200
H78         H  0.56448115  0.01487702  0.85759414     0.07500
H79         H  0.51999333  0.05076630  0.78489792     0.08700
Cu80       Cu  0.51636519  0.98074439  0.87026117     0.44200
Cu81       Cu  0.47875716  0.00852071  0.80686165     0.42000
Cu82       Cu  0.45329610  0.96390601  0.86698257     0.43900
N83         N  0.49868102  0.96219258  0.90874090    -0.34900
N84         N  0.47521784  0.95628133  0.90791082    -0.29100
C85         C  0.46805329  0.94881390  0.93874729    -0.05200
C86         C  0.48799959  0.95025821  0.96001087     0.07000
C87         C  0.50712996  0.95863182  0.94004632     0.00800
H88         H  0.44927687  0.94479806  0.94579383     0.08400
H89         H  0.52517711  0.96405851  0.94833769     0.07500
N90         N  0.43461256  0.97758133  0.82595388    -0.36300
N91         N  0.44349019  0.99409511  0.80473756    -0.28500
C92         C  0.42616339  0.99953034  0.78204660    -0.03700
C93         C  0.40549453  0.98563444  0.78911905     0.04900
C94         C  0.41151802  0.97201384  0.81722292     0.03000
H95         H  0.42851438  0.01253297  0.76171725     0.08100
H96         H  0.39982066  0.95944158  0.83095812     0.06900
C97         C  0.09505710  0.21895319  0.68920193     0.86300
C98         C  0.07011151  0.20593669  0.69469944    -0.54000
C99         C  0.06651718  0.18648153  0.67379911     0.09200
C100        C  0.08795133  0.18141497  0.64959013     0.20200
C101        C  0.11399838  0.19829992  0.69321771    -0.54700
C102        C  0.11049418  0.17883542  0.67220980     0.09300
C103        C  0.09534892  0.22519956  0.65136493    -0.54200
C104        C  0.09204711  0.20556248  0.63047264     0.09900
H105        H  0.05623381  0.21093336  0.71303957     0.14400
H106        H  0.08501924  0.16529971  0.63307649     0.00100
H107        H  0.12887985  0.19907568  0.71119064     0.14700
H108        H  0.09752358  0.24379334  0.64220517     0.14500
C109        C  0.25046777  0.00045469  0.65254601     0.86300
C110        C  0.23817388  0.02496658  0.66164802    -0.54000
C111        C  0.21694039  0.02926734  0.64486574     0.09200
C112        C  0.20989708  0.00904802  0.61996371     0.20200
C113        C  0.23044597  0.98094797  0.65790659    -0.54700
C114        C  0.20925981  0.98545212  0.64092177     0.09300
C115        C  0.25367222  0.00191603  0.61381124    -0.54200
C116        C  0.23239877  0.00607084  0.59680579     0.09900
H117        H  0.24550023  0.03774768  0.67997424     0.14400
H118        H  0.19255967  0.01266553  0.60636244     0.00100
H119        H  0.23280379  0.96505917  0.67398985     0.14700
H120        H  0.27093053  0.00085257  0.60037050     0.14500
C121        C  0.87699929  0.06009215  0.68068688     0.86300
C122        C  0.88979826  0.03522031  0.68570679    -0.54000
C123        C  0.91036318  0.03242345  0.66655963     0.09200
C124        C  0.91665548  0.05452044  0.64419191     0.20200
C125        C  0.89716180  0.07912067  0.68775698    -0.54700
C126        C  0.91799784  0.07623747  0.66878252     0.09300
C127        C  0.87282591  0.06132660  0.64243698    -0.54200
C128        C  0.89353564  0.05888978  0.62297642     0.09900
H129        H  0.88354965  0.02048106  0.70177693     0.14400
H130        H  0.93361892  0.05239349  0.62921994     0.00100
H131        H  0.89512873  0.09347159  0.70651813     0.14700
H132        H  0.85471541  0.06388798  0.63189530     0.14500
C133        C  0.03289958  0.84267125  0.64979280     0.86300
C134        C  0.05733305  0.85603278  0.65565753    -0.54000
C135        C  0.05953325  0.87753352  0.63851319     0.09200
C136        C  0.03701955  0.88414766  0.61749956     0.20200
C137        C  0.01328808  0.86186970  0.65950700    -0.54700
C138        C  0.01552325  0.88339177  0.64251461     0.09300
C139        C  0.03084075  0.84037913  0.61125482    -0.54200
C140        C  0.03271395  0.86206594  0.59416629     0.09900
H141        H  0.07173153  0.84900209  0.67171742     0.14400
H142        H  0.03865084  0.90201002  0.60436888     0.00100
H143        H  0.99912455  0.85975903  0.67844911     0.14700
H144        H  0.02860746  0.82284887  0.59880590     0.14500
N145        N  0.59771729  0.07165240  0.15759596    -0.27500
N146        N  0.58527506  0.08017506  0.13169112    -0.35400
C147        C  0.56496970  0.06663345  0.12764169     0.00800
C148        C  0.56437353  0.04886061  0.15232096     0.06900
C149        C  0.58550290  0.05239170  0.17079065    -0.06200
H150        H  0.55263746  0.06827605  0.10654788     0.07500
H151        H  0.59248087  0.04063783  0.19042683     0.08700
Cu152      Cu  0.59875651  0.10584747  0.09808480     0.44200
Cu153      Cu  0.63278469  0.08399913  0.16895869     0.42000
Cu154      Cu  0.66178621  0.12340563  0.10505733     0.43900
N155        N  0.61784677  0.12379024  0.06028470    -0.34900
N156        N  0.64128161  0.12967429  0.06229371    -0.29100
C157        C  0.64952770  0.13617622  0.03151586    -0.05200
C158        C  0.63031520  0.13418705  0.00911474     0.07000
C159        C  0.61048581  0.12651802  0.02831762     0.00800
H160        H  0.66852732  0.13993679  0.02542907     0.08400
H161        H  0.59272575  0.12087038  0.01919024     0.07500
N162        N  0.67897338  0.11124824  0.14823543    -0.36300
N163        N  0.66861147  0.09700019  0.17123629    -0.28500
C164        C  0.68521448  0.09182113  0.19504125    -0.03700
C165        C  0.70715091  0.10318300  0.18652030     0.04900
C166        C  0.70237905  0.11548763  0.15681848     0.03000
H167        H  0.68143910  0.08067948  0.21699383     0.08100
H168        H  0.71514701  0.12629117  0.14203217     0.06900
N169        N  0.51397350  0.00603919  0.15184868    -0.27500
N170        N  0.52792645  0.99714962  0.12735895    -0.35400
C171        C  0.54917831  0.00957288  0.12646582     0.00800
C172        C  0.54875742  0.02701579  0.15167985     0.06900
C173        C  0.52605899  0.02443411  0.16710420    -0.06200
H174        H  0.56281508  0.00783267  0.10665422     0.07500
H175        H  0.51801598  0.03653360  0.18573316     0.08700
Cu176      Cu  0.51542955  0.97353732  0.09038532     0.44200
Cu177      Cu  0.47753811  0.99590639  0.15866834     0.42000
Cu178      Cu  0.45062956  0.96175849  0.08935148     0.43900
N179        N  0.49751098  0.95826783  0.04959755    -0.34900
N180        N  0.47364108  0.95418162  0.04911179    -0.29100
C181        C  0.46693027  0.94853355  0.01753279    -0.05200
C182        C  0.48754495  0.94939294  0.99705098     0.07000
C183        C  0.50662937  0.95542502  0.01827695     0.00800
H184        H  0.44813420  0.94633127  0.00958980     0.08400
H185        H  0.52529099  0.95974528  0.01100272     0.07500
N186        N  0.43133488  0.97272054  0.13174644    -0.36300
N187        N  0.44119934  0.98449668  0.15742441    -0.28500
C188        C  0.42375414  0.98848966  0.18092612    -0.03700
C189        C  0.40189591  0.97891792  0.16931831     0.04900
C190        C  0.40732727  0.96924714  0.13797009     0.03000
H191        H  0.42661814  0.99827993  0.20427136     0.08100
H192        H  0.39477451  0.96031321  0.12093619     0.06900
N193        N  0.03761877  0.58984711  0.15962306    -0.27500
N194        N  0.03279163  0.57650876  0.13268159    -0.35400
C195        C  0.04692351  0.55646058  0.13273839     0.00800
C196        C  0.06129299  0.55690684  0.16115333     0.06900
C197        C  0.05507309  0.57841120  0.17767537    -0.06200
H198        H  0.04826592  0.54362736  0.11202306     0.07500
H199        H  0.06409385  0.58620964  0.19936065     0.08700
Cu200      Cu  0.01235843  0.58828526  0.09236586     0.44200
Cu201      Cu  0.02333564  0.62495356  0.16587618     0.42000
Cu202      Cu  0.99817043  0.65136457  0.08750071     0.43900
N203        N  0.00077401  0.60468606  0.04854587    -0.34900
N204        N  0.99607955  0.62831647  0.04619966    -0.29100
C205        C  0.99257857  0.63404459  0.01360181    -0.05200
C206        C  0.99539119  0.61291900  0.99464440     0.07000
C207        C  0.00047569  0.59468273  0.01766186     0.00800
H208        H  0.98981196  0.65242727  0.00426412     0.08400
H209        H  0.00533954  0.57589366  0.01222201     0.07500
N210        N  0.00150031  0.66993208  0.13275973    -0.36300
N211        N  0.00964206  0.66041535  0.16124027    -0.28500
C212        C  0.00942091  0.67791462  0.18515653    -0.03700
C213        C  0.00099082  0.69940397  0.17089965     0.04900
C214        C  0.99628043  0.69369168  0.13769582     0.03000
H215        H  0.01608236  0.67549573  0.21053975     0.08100
H216        H  0.98994520  0.70603049  0.11831749     0.06900
N217        N  0.10416035  0.50771656  0.17512758    -0.27500
N218        N  0.11344790  0.51805619  0.14770278    -0.35400
C219        C  0.10114047  0.53874200  0.14127928     0.00800
C220        C  0.08327869  0.54185828  0.16571887     0.06900
C221        C  0.08560837  0.52177997  0.18676744    -0.06200
H222        H  0.10309602  0.54919172  0.11825047     0.07500
H223        H  0.07300924  0.51636355  0.20660581     0.08700
Cu224      Cu  0.13653344  0.50117176  0.11324743     0.44200
Cu225      Cu  0.11308734  0.47228059  0.19036567     0.42000
Cu226      Cu  0.13994836  0.43723820  0.12090610     0.43900
N227        N  0.14894519  0.47913728  0.07430776    -0.34900
N228        N  0.14943146  0.45506857  0.07691202    -0.29100
C229        C  0.15473415  0.44530612  0.04662756    -0.05200
C230        C  0.15763831  0.46422079  0.02378684     0.07000
C231        C  0.15391466  0.48544388  0.04221977     0.00800
H232        H  0.15511053  0.42588445  0.04132640     0.08400
H233        H  0.15320841  0.50395864  0.03262959     0.07500
N234        N  0.13077916  0.42271259  0.16727042    -0.36300
N235        N  0.12175317  0.43513686  0.19315961    -0.28500
C236        C  0.11765611  0.41945097  0.21884336    -0.03700
C237        C  0.12426825  0.39614753  0.20826022     0.04900
C238        C  0.13242206  0.39899205  0.17551116     0.03000
H239        H  0.10931717  0.42441603  0.24271186     0.08100
H240        H  0.13866568  0.38473922  0.15856388     0.06900
C241        C  0.09612021  0.23221694  0.32084218     0.86300
C242        C  0.11333692  0.21103332  0.31062728    -0.54000
C243        C  0.10870194  0.18971980  0.32719866     0.09200
C244        C  0.08723196  0.19112762  0.35240302     0.20200
C245        C  0.07036253  0.22159194  0.31447172    -0.54700
C246        C  0.06562008  0.20031797  0.33136085     0.09300
C247        C  0.09820915  0.23390308  0.35931002    -0.54200
C248        C  0.09338240  0.21256307  0.37608879     0.09900
H249        H  0.12738789  0.21197277  0.29122486     0.14400
H250        H  0.08315004  0.17369204  0.36552227     0.00100
H251        H  0.05707588  0.22993042  0.29782255     0.14700
H252        H  0.10292315  0.25081171  0.37213491     0.14500
C253        C  0.23842511  0.00525608  0.28614070     0.86300
C254        C  0.21704630  0.98708927  0.28057781    -0.54000
C255        C  0.19680785  0.99203563  0.29979398     0.09200
C256        C  0.19940068  0.01450517  0.32253591     0.20200
C257        C  0.22661800  0.03038835  0.27897432    -0.54700
C258        C  0.20648160  0.03535344  0.29852693     0.09300
C259        C  0.24271471  0.00480701  0.32432014    -0.54200
C260        C  0.22243429  0.00972716  0.34354857     0.09900
H261        H  0.21696360  0.97237712  0.26226964     0.14400
H262        H  0.18277859  0.01868838  0.33767799     0.00100
H263        H  0.23337638  0.04297912  0.25989317     0.14700
H264        H  0.26047688  0.00073582  0.33512541     0.14500
C265        C  0.00875810  0.86482878  0.28490062     0.86300
C266        C  0.98852690  0.88441729  0.28154927    -0.54000
C267        C  0.99255078  0.90476837  0.30066408     0.09200
C268        C  0.01623004  0.90392353  0.32138167     0.20200
C269        C  0.03247526  0.87877129  0.27602182    -0.54700
C270        C  0.03668158  0.89912857  0.29524392     0.09300
C271        C  0.01012436  0.85998547  0.32294288    -0.54200
C272        C  0.01437439  0.88022115  0.34221369     0.09900
H273        H  0.97275672  0.88327677  0.26528174     0.14400
H274        H  0.01945118  0.92032969  0.33696541     0.00100
H275        H  0.04490547  0.87278913  0.25616667     0.14700
H276        H  0.00811421  0.84178359  0.33362082     0.14500
C277        C  0.86574539  0.09256941  0.31707045     0.86300
C278        C  0.88555711  0.11244500  0.31356964    -0.54000
C279        C  0.90711679  0.10660256  0.32863831     0.09200
C280        C  0.90715480  0.08147840  0.34609252     0.20200
C281        C  0.87775767  0.06895199  0.30390964    -0.54700
C282        C  0.89944047  0.06301246  0.31881756     0.09300
C283        C  0.86376936  0.08867782  0.35563260    -0.54200
C284        C  0.88529124  0.08236405  0.37060867     0.09900
H285        H  0.88278527  0.12970895  0.30060438     0.14400
H286        H  0.92462849  0.07694357  0.35867387     0.00100
H287        H  0.86945043  0.05771886  0.28451164     0.14700
H288        H  0.84753875  0.09183056  0.37078335     0.14500
C289        C  0.97654643  0.92648011  0.29932135    -0.20100
C290        C  0.95547524  0.92894351  0.32001775     0.36100
C291        C  0.94222243  0.95088808  0.31924651    -0.26000
C292        C  0.94911267  0.97018258  0.29777000     0.02600
C293        C  0.96913162  0.96695881  0.27542934     0.27400
C294        C  0.98278063  0.94519712  0.27670273    -0.25200
N295        N  0.94680034  0.90964864  0.34170887    -0.82600
H296        H  0.92676116  0.95311110  0.33628922     0.13200
C297        C  0.93619309  0.99408254  0.30059233     0.02600
N298        N  0.97551722  0.98580933  0.25165454    -0.81100
H299        H  0.99843543  0.94280065  0.26003534     0.18000
C300        C  0.94993967  0.01535880  0.30652562    -0.26000
C301        C  0.93854388  0.03817633  0.31124814     0.36100
C302        C  0.91267253  0.03966076  0.31142210    -0.20000
C303        C  0.89896253  0.01830908  0.30518507    -0.25200
C304        C  0.91042518  0.99568403  0.29923000     0.27400
H305        H  0.96973626  0.01412454  0.30769759     0.13200
N306        N  0.95324062  0.05980115  0.31515004    -0.82500
H307        H  0.87913317  0.01910736  0.30549870     0.18000
N308        N  0.89600080  0.97431431  0.29193462    -0.81100
H309        H  0.97189593  0.05543608  0.31511094     0.33700
H310        H  0.95035576  0.07067788  0.29392668     0.38200
H311        H  0.87731746  0.97856856  0.29199892     0.33600
H312        H  0.90044715  0.96870408  0.26744351     0.30300
H313        H  0.99073418  0.98059115  0.23716948     0.33600
H314        H  0.96086410  0.98764650  0.23502277     0.30300
H315        H  0.95838727  0.89447010  0.34116354     0.38200
H316        H  0.94667696  0.91623612  0.36641600     0.33700
C317        C  0.05971573  0.91388532  0.29259391    -0.20100
C318        C  0.06016720  0.93942167  0.29833185     0.36100
C319        C  0.08262228  0.95196545  0.29862824    -0.26000
C320        C  0.10474459  0.93987397  0.29146775     0.02600
C321        C  0.10422136  0.91468039  0.28355006     0.27400
C322        C  0.08189871  0.90189799  0.28502832    -0.25200
N323        N  0.03795000  0.95296378  0.30295665    -0.82600
H324        H  0.08271016  0.97131778  0.30460748     0.13200
C325        C  0.12837201  0.95350144  0.29319057     0.02600
N326        N  0.12638656  0.90216549  0.27395850    -0.81100
H327        H  0.08199155  0.88234242  0.28062854     0.18000
C328        C  0.14769079  0.94363537  0.31205954    -0.26000
C329        C  0.17045076  0.95537185  0.31401593     0.36100
C330        C  0.17379900  0.97801798  0.29742712    -0.20000
C331        C  0.15460876  0.98801357  0.27868365    -0.25200
C332        C  0.13193290  0.97597330  0.27620665     0.27400
H333        H  0.14507240  0.92657335  0.32553453     0.13200
N334        N  0.18965385  0.94354437  0.33255331    -0.82500
H335        H  0.15752488  0.00507163  0.26535189     0.18000
N336        N  0.11270656  0.98629664  0.25615317    -0.81100
H337        H  0.18369606  0.94159932  0.35749295     0.33700
H338        H  0.20561715  0.95405690  0.33315895     0.38200
H339        H  0.11826554  0.00296156  0.24559299     0.33600
H340        H  0.10952905  0.97433813  0.23609325     0.30300
H341        H  0.12289736  0.88369183  0.26900571     0.33600
H342        H  0.13260076  0.90988316  0.25134757     0.30300
H343        H  0.03711043  0.96632988  0.28415106     0.38200
H344        H  0.03874792  0.96188346  0.32624113     0.33700
C345        C  0.04160196  0.18767567  0.33015458    -0.20100
C346        C  0.04006298  0.16227692  0.32460729     0.36100
C347        C  0.01712631  0.15082434  0.32423364    -0.26000
C348        C  0.99548899  0.16429145  0.32884315     0.02600
C349        C  0.99689021  0.18975212  0.33463539     0.27400
C350        C  0.01999418  0.20119976  0.33523197    -0.25200
N351        N  0.06167549  0.14809116  0.31837489    -0.82600
H352        H  0.01620078  0.13122927  0.32012758     0.13200
C353        C  0.97168180  0.15121405  0.32742562     0.02600
N354        N  0.97491751  0.20384465  0.33961818    -0.81100
H355        H  0.02118581  0.22071428  0.33987027     0.18000
C356        C  0.95559250  0.15212946  0.35520366    -0.26000
C357        C  0.93384531  0.13832398  0.35560793     0.36100
C358        C  0.92852454  0.12301899  0.32807439    -0.20000
C359        C  0.94395974  0.12286347  0.29978074    -0.25200
C360        C  0.96554875  0.13682423  0.29912943     0.27400
H361        H  0.96027448  0.16322848  0.37685690     0.13200
N362        N  0.91722322  0.13965583  0.38382275    -0.82500
H363        H  0.93924687  0.11159795  0.27830475     0.18000
N364        N  0.98139973  0.13632502  0.27000947    -0.81100
H365        H  0.92389016  0.15168398  0.40210028     0.33700
H366        H  0.90076193  0.14706062  0.37521727     0.38200
H367        H  0.97436237  0.12466112  0.25155449     0.33600
H368        H  0.98159686  0.15392099  0.25967527     0.30300
H369        H  0.97917476  0.22226345  0.34378164     0.33600
H370        H  0.96495704  0.20312756  0.31725190     0.30300
H371        H  0.05989084  0.13963048  0.29488964     0.38200
H372        H  0.06258525  0.13437144  0.33668410     0.33700
C373        C  0.19252247  0.05864719  0.29767401    -0.20100
C374        C  0.20437363  0.08163456  0.29863810     0.36100
C375        C  0.19018744  0.10301196  0.30136978    -0.26000
C376        C  0.16454930  0.10179239  0.30379227     0.02600
C377        C  0.15269113  0.07893622  0.30233023     0.27400
C378        C  0.16680848  0.05762342  0.29916348    -0.25200
N379        N  0.23068369  0.08317336  0.29830450    -0.82600
H380        H  0.19914330  0.12070262  0.30259344     0.13200
C381        C  0.15041384  0.12449138  0.30968148     0.02600
N382        N  0.12642282  0.07744216  0.30498868    -0.81100
H383        H  0.15764216  0.04008283  0.29875374     0.18000
C384        C  0.13357446  0.13236740  0.28547775    -0.26000
C385        C  0.11982543  0.15381255  0.29050944     0.36100
C386        C  0.12285757  0.16725811  0.32052028    -0.20000
C387        C  0.13998287  0.15964416  0.34432223    -0.25200
C388        C  0.15356565  0.13813792  0.33949788     0.27400
H389        H  0.13132043  0.12182148  0.26257318     0.13200
N390        N  0.10264121  0.16181230  0.26555756    -0.82500
H391        H  0.14301464  0.17072807  0.36646995     0.18000
N392        N  0.17042225  0.12998157  0.36478144    -0.81100
H393        H  0.10911230  0.17829499  0.25551262     0.33700
H394        H  0.10204281  0.14938316  0.24553504     0.38200
H395        H  0.17057706  0.14213575  0.38513748     0.33600
H396        H  0.16393048  0.11327248  0.37413379     0.30300
H397        H  0.12057802  0.05925098  0.30330472     0.33600
H398        H  0.12137654  0.08360195  0.32901450     0.30300
H399        H  0.23641027  0.10143383  0.29911454     0.38200
H400        H  0.23699174  0.07492700  0.32036279     0.33700
C401        C  0.10097235  0.25705899  0.30409332    -0.20100
C402        C  0.08322329  0.27609756  0.30539711     0.36100
C403        C  0.08804486  0.29844678  0.28921137    -0.26000
C404        C  0.11056981  0.30284510  0.27339597     0.02600
C405        C  0.12895465  0.28490460  0.27391839     0.27400
C406        C  0.12409107  0.26232474  0.28945283    -0.25200
N407        N  0.06038693  0.27285338  0.32323410    -0.82600
H408        H  0.07428179  0.31274130  0.28931339     0.13200
C409        C  0.11455849  0.32654118  0.25652499     0.02600
N410        N  0.15262433  0.28987950  0.25920091    -0.81100
H411        H  0.13889959  0.24932233  0.29075407     0.18000
C412        C  0.12433107  0.34617702  0.27478009    -0.26000
C413        C  0.12733917  0.36923324  0.25969203     0.36100
C414        C  0.12069214  0.37256281  0.22578805    -0.20000
C415        C  0.11099127  0.35278052  0.20760644    -0.25200
C416        C  0.10767758  0.32981277  0.22274478     0.27400
H417        H  0.12949485  0.34360500  0.30085403     0.13200
N418        N  0.13766395  0.38899911  0.27857556    -0.82500
H419        H  0.10568339  0.35535237  0.18159729     0.18000
N420        N  0.09694489  0.30991876  0.20424526    -0.81100
H421        H  0.15497355  0.38358235  0.28686023     0.33700
H422        H  0.12657248  0.39193454  0.29980991     0.38200
H423        H  0.09244984  0.31550158  0.17986494     0.33600
H424        H  0.11023031  0.29626811  0.20163231     0.30300
H425        H  0.16432386  0.27490914  0.26222316     0.33600
H426        H  0.15029671  0.29210033  0.23326312     0.30300
H427        H  0.06430633  0.27137361  0.34887558     0.38200
H428        H  0.04920792  0.28826374  0.32068220     0.33700
C429        C  0.00026826  0.72397649  0.18632065    -0.20100
C430        C  0.98901508  0.72805514  0.21795031     0.36100
C431        C  0.98938620  0.75169789  0.23196321    -0.26000
C432        C  0.00091745  0.77109051  0.21498297     0.02600
C433        C  0.01211847  0.76705409  0.18339756     0.27400
C434        C  0.01142139  0.74354230  0.16914813    -0.25200
N435        N  0.97717526  0.70825527  0.23553441    -0.82600
H436        H  0.98096490  0.75500408  0.25637297     0.13200
C437        C  0.00247779  0.79522165  0.23154573     0.02600
N438        N  0.02470504  0.78669787  0.16645439    -0.81100
H439        H  0.02019041  0.74029590  0.14495405     0.18000
C440        C  0.02298065  0.80044615  0.25106488    -0.26000
C441        C  0.02512378  0.82284569  0.26789162     0.36100
C442        C  0.00643488  0.84079012  0.26518253    -0.20000
C443        C  0.98586242  0.83532167  0.24514431    -0.25200
C444        C  0.98376615  0.81272158  0.22832381     0.27400
H445        H  0.03736698  0.78690324  0.25351858     0.13200
N446        N  0.04631830  0.82719712  0.28816547    -0.82500
H447        H  0.97108757  0.84819841  0.24254163     0.18000
N448        N  0.96254726  0.80727718  0.20840247    -0.81100
H449        H  0.06187687  0.82563624  0.27275746     0.33700
H450        H  0.04713184  0.81353967  0.30657492     0.38200
H451        H  0.95021959  0.82191458  0.20892616     0.33600
H452        H  0.96834170  0.80536864  0.18336505     0.30300
H453        H  0.03239399  0.78056983  0.14374891     0.33600
H454        H  0.01168436  0.79991784  0.16020264     0.30300
H455        H  0.96232864  0.70255056  0.22098706     0.38200
H456        H  0.96990431  0.71432655  0.25852048     0.33700
C457        C  0.26246977  0.00050756  0.26682941    -0.20100
C458        C  0.28124865  0.01861007  0.26536440     0.36100
C459        C  0.30330162  0.01358947  0.24820971    -0.26000
C460        C  0.30772868  0.99061934  0.23398130     0.02600
C461        C  0.29001980  0.97206971  0.23691421     0.27400
C462        C  0.26763157  0.97713644  0.25324168    -0.25200
N463        N  0.27806461  0.04201636  0.28144967    -0.82600
H464        H  0.31740752  0.02753153  0.24646735     0.13200
C465        C  0.33138642  0.98619013  0.21674036     0.02600
N466        N  0.29514364  0.94797280  0.22407404    -0.81100
H467        H  0.25479198  0.96227104  0.25623215     0.18000
C468        C  0.35129135  0.97759298  0.23539967    -0.26000
C469        C  0.37444006  0.97450726  0.22018977     0.36100
C470        C  0.37758817  0.98031217  0.18578621    -0.20000
C471        C  0.35743662  0.98822242  0.16694971    -0.25200
C472        C  0.33433352  0.99139258  0.18220589     0.27400
H473        H  0.34875500  0.97350586  0.26192188     0.13200
N474        N  0.39468214  0.96532838  0.23938200    -0.82500
H475        H  0.35992214  0.99263745  0.14052137     0.18000
N476        N  0.31402537  0.00054214  0.16311193    -0.81100
H477        H  0.39968930  0.94841552  0.22908618     0.33700
H478        H  0.38929792  0.96198861  0.26430923     0.38200
H479        H  0.31937001  0.00391250  0.13818223     0.33600
H480        H  0.30070933  0.98679045  0.16226112     0.30300
H481        H  0.28041057  0.93618006  0.22882299     0.33600
H482        H  0.29688145  0.94925860  0.19789024     0.30300
H483        H  0.29311386  0.05342283  0.27672758     0.38200
H484        H  0.27759170  0.03914998  0.30746187     0.33700
C485        C  0.73069128  0.10258768  0.20495858    -0.20100
C486        C  0.73824811  0.08163643  0.22296466     0.36100
C487        C  0.76027510  0.08232790  0.24095169    -0.26000
C488        C  0.77502664  0.10336420  0.24118759     0.02600
C489        C  0.76789921  0.12406809  0.22255602     0.27400
C490        C  0.74585707  0.12341986  0.20446732    -0.25200
N491        N  0.72388849  0.05956648  0.22239530    -0.82600
H492        H  0.76613255  0.06627300  0.25473891     0.13200
C493        C  0.79780517  0.10319821  0.26131805     0.02600
N494        N  0.78284124  0.14575880  0.22257823    -0.81100
H495        H  0.74018711  0.13950815  0.19064359     0.18000
C496        C  0.82050976  0.10669420  0.24535807    -0.26000
C497        C  0.84257675  0.10414960  0.26310135     0.36100
C498        C  0.84198043  0.09810700  0.29799778    -0.20000
C499        C  0.81884296  0.09528898  0.31378936    -0.25200
C500        C  0.79694306  0.09806168  0.29599753     0.27400
H501        H  0.82102521  0.11056944  0.21858300     0.13200
N502        N  0.86552846  0.10750141  0.24554500    -0.82500
H503        H  0.81717948  0.08993026  0.33974681     0.18000
N504        N  0.77368254  0.09524435  0.31292473    -0.81100
H505        H  0.86262476  0.11352911  0.22089701     0.33700
H506        H  0.87403114  0.09045835  0.24339521     0.38200
H507        H  0.77608241  0.09127171  0.33845504     0.33600
H508        H  0.76465232  0.11209276  0.31186243     0.30300
H509        H  0.77505745  0.15933885  0.20751832     0.33600
H510        H  0.78297642  0.15259205  0.24719076     0.30300
H511        H  0.72400909  0.05302912  0.19762681     0.38200
H512        H  0.73194527  0.04598290  0.23717534     0.33700
C513        C  0.01845958  0.87858574  0.37931294    -0.20100
C514        C  0.00985663  0.89660134  0.40206638     0.36100
C515        C  0.01377734  0.89379613  0.43673802    -0.26000
C516        C  0.02578760  0.87315792  0.44932465     0.02600
C517        C  0.03485115  0.85532103  0.42692319     0.27400
C518        C  0.03121454  0.85825439  0.39216396    -0.25200
N519        N  0.99629616  0.91731580  0.39052390    -0.82600
H520        H  0.00676794  0.90749753  0.45406908     0.13200
C521        C  0.02804577  0.87012068  0.48615977     0.02600
N522        N  0.04767474  0.83433098  0.43963312    -0.81100
H523        H  0.03855125  0.84461907  0.37503095     0.18000
C524        C  0.01394512  0.85221074  0.50247794    -0.26000
C525        C  0.01460821  0.84949228  0.53767432     0.36100
C526        C  0.03067112  0.86435344  0.55678730    -0.20000
C527        C  0.04467855  0.88233234  0.54007321    -0.25200
C528        C  0.04338051  0.88548683  0.50504590     0.27400
H529        H  0.00178634  0.84083675  0.48770792     0.13200
N530        N  0.99833349  0.83240628  0.55396091    -0.82500
H531        H  0.05686720  0.89398114  0.55417704     0.18000
N532        N  0.05754161  0.90423698  0.48851497    -0.81100
H533        H  0.98781251  0.82300557  0.53624006     0.33700
H534        H  0.98607580  0.84248818  0.56884132     0.38200
H535        H  0.06773585  0.91417587  0.50604605     0.33600
H536        H  0.07016649  0.89557607  0.47254824     0.30300
H537        H  0.05305666  0.82281715  0.41986698     0.33600
H538        H  0.06375791  0.84059750  0.45092493     0.30300
H539        H  0.97945838  0.91746872  0.40325738     0.38200
H540        H  0.00582268  0.93311430  0.39752949     0.33700
C541        C  0.88733262  0.07756526  0.40734018    -0.20100
C542        C  0.86924649  0.06410852  0.42511157     0.36100
C543        C  0.87106226  0.06161530  0.46019346    -0.26000
C544        C  0.89071233  0.07190245  0.47777966     0.02600
C545        C  0.90926970  0.08468491  0.45988622     0.27400
C546        C  0.90750042  0.08694265  0.42486402    -0.25200
N547        N  0.84940830  0.05260868  0.40744964    -0.82600
H548        H  0.85715896  0.05145423  0.47397550     0.13200
C549        C  0.89137742  0.06872511  0.51470990     0.02600
N550        N  0.92983999  0.09599702  0.47623118    -0.81100
H551        H  0.92175925  0.09678856  0.41148205     0.18000
C552        C  0.90892725  0.05324164  0.52866429    -0.26000
C553        C  0.91004523  0.04949941  0.56354684     0.36100
C554        C  0.89328277  0.06168369  0.58533312    -0.20000
C555        C  0.87573651  0.07735641  0.57083198    -0.25200
C556        C  0.87445942  0.08075851  0.53582691     0.27400
H557        H  0.92178218  0.04379658  0.51224048     0.13200
N558        N  0.92794578  0.03282122  0.57609340    -0.82500
H559        H  0.86315675  0.08747897  0.58677788     0.18000
N560        N  0.85612322  0.09645739  0.52158132    -0.81100
H561        H  0.94529467  0.03932872  0.56911439     0.33700
H562        H  0.92539233  0.01593800  0.56419614     0.38200
H563        H  0.84486828  0.10377452  0.54050066     0.33600
H564        H  0.86516191  0.11121644  0.51020217     0.30300
H565        H  0.92889877  0.11480291  0.47155272     0.33600
H566        H  0.92901074  0.09405168  0.50235170     0.30300
H567        H  0.85698515  0.03932674  0.39150553     0.38200
H568        H  0.83776304  0.04340884  0.42424562     0.33700
C569        C  0.92439732  0.00950167  0.66615093    -0.20100
C570        C  0.93805254  0.00195025  0.69422802     0.36100
C571        C  0.95201479  0.98042710  0.69194042    -0.26000
C572        C  0.95228596  0.96651289  0.66219475     0.02600
C573        C  0.93771806  0.97362423  0.63471230     0.27400
C574        C  0.92356377  0.99489694  0.63728906    -0.25200
N575        N  0.93744233  0.01598515  0.72488398    -0.82600
H576        H  0.96291079  0.97458010  0.71317216     0.13200
C577        C  0.96853032  0.94501219  0.65945539     0.02600
N578        N  0.93768182  0.95942349  0.60418521    -0.81100
H579        H  0.91166066  0.00005594  0.61685159     0.18000
C580        C  0.95827404  0.92193668  0.65316323    -0.26000
C581        C  0.97327201  0.90152259  0.64730243     0.36100
C582        C  0.99896880  0.90431845  0.64838568    -0.20000
C583        C  0.00919614  0.92732229  0.65507311    -0.25200
C584        C  0.99419872  0.94776275  0.66071432     0.27400
H585        H  0.93851844  0.92003115  0.65208377     0.13200
N586        N  0.96257927  0.87817107  0.63936503    -0.82500
H587        H  0.02894243  0.92933611  0.65581924     0.18000
N588        N  0.00487578  0.97136521  0.66714620    -0.81100
H589        H  0.94344780  0.87928782  0.63955494     0.33700
H590        H  0.96783142  0.87372084  0.61471066     0.38200
H591        H  0.02400337  0.97018784  0.66748914     0.33600
H592        H  0.00041430  0.98280418  0.64700451     0.30300
H593        H  0.92587538  0.96714771  0.58650883     0.33600
H594        H  0.95531113  0.96030745  0.59371288     0.30300
H595        H  0.94499174  0.03318087  0.71981834     0.38200
H596        H  0.94848782  0.00786024  0.74314004     0.33700
C597        C  0.22322361  0.01119458  0.38103287    -0.20100
C598        C  0.20374101  0.00265367  0.40158513     0.36100
C599        C  0.20547146  0.00426227  0.43672968    -0.26000
C600        C  0.22655501  0.01359617  0.45189240     0.02600
C601        C  0.24607006  0.02219551  0.43176383     0.27400
C602        C  0.24412573  0.02115008  0.39651952    -0.25200
N603        N  0.18262605  0.99127778  0.38720817    -0.82600
H604        H  0.19061811  0.99732302  0.45234014     0.13200
C605        C  0.22856059  0.01255075  0.48890316     0.02600
N606        N  0.26783242  0.03167530  0.44726080    -0.81100
H607        H  0.25902156  0.02818561  0.38111729     0.18000
C608        C  0.24286011  0.99410896  0.50322358    -0.26000
C609        C  0.24414127  0.99134784  0.53831387     0.36100
C610        C  0.23123899  0.00784436  0.55947755    -0.20000
C611        C  0.21686971  0.02628649  0.54491924    -0.25200
C612        C  0.21546273  0.02884567  0.50975872     0.27400
H613        H  0.25255553  0.98144751  0.48684965     0.13200
N614        N  0.25790250  0.97145139  0.55239287    -0.82500
H615        H  0.20692989  0.03892103  0.56097454     0.18000
N616        N  0.20080338  0.04784079  0.49508240    -0.81100
H617        H  0.26637812  0.96117919  0.53336367     0.33700
H618        H  0.24546156  0.95976678  0.56444358     0.38200
H619        H  0.19221859  0.05822492  0.51390372     0.33600
H620        H  0.21265011  0.05968740  0.48215793     0.30300
H621        H  0.28061428  0.03703814  0.42891582     0.33600
H622        H  0.26290397  0.04747994  0.46053741     0.30300
H623        H  0.16718000  0.00127005  0.39470659     0.38200
H624        H  0.18098669  0.97372340  0.39742914     0.33700
C625        C  0.08159887  0.89312357  0.64007873    -0.20100
C626        C  0.08851173  0.90468600  0.67028798     0.36100
C627        C  0.10952811  0.91959060  0.67054979    -0.26000
C628        C  0.12355803  0.92313708  0.64115488     0.02600
C629        C  0.11659054  0.91152091  0.61095205     0.27400
C630        C  0.09568710  0.89651069  0.61079505    -0.25200
N631        N  0.07413846  0.90127187  0.70045012    -0.82600
H632        H  0.11502424  0.92850434  0.69369240     0.13200
C633        C  0.14548342  0.93913125  0.64224704     0.02600
N634        N  0.13069633  0.91516085  0.58059396    -0.81100
H635        H  0.09052196  0.88718580  0.58786560     0.18000
C636        C  0.16864268  0.92902365  0.63564573    -0.26000
C637        C  0.18978060  0.94373068  0.63536819     0.36100
C638        C  0.18764173  0.96902302  0.64205642    -0.20000
C639        C  0.16447058  0.97909898  0.64875770    -0.25200
C640        C  0.14333686  0.96436950  0.64907228     0.27400
H641        H  0.17014478  0.90961500  0.63037199     0.13200
N642        N  0.21326975  0.93320999  0.62746747    -0.82500
H643        H  0.16287478  0.99853811  0.65368574     0.18000
N644        N  0.11968180  0.97493240  0.65587590    -0.81100
H645        H  0.21166349  0.91437473  0.62336500     0.33700
H646        H  0.21922981  0.94084363  0.60470075     0.38200
H647        H  0.12129577  0.99369144  0.66060848     0.33600
H648        H  0.10921280  0.97314496  0.63406024     0.30300
H649        H  0.12314916  0.90525057  0.56064763     0.33600
H650        H  0.12938385  0.93365750  0.57411554     0.30300
H651        H  0.05683272  0.90883558  0.69631109     0.38200
H652        H  0.08178069  0.91096990  0.72051337     0.33700
C653        C  0.09191913  0.20723795  0.59294702    -0.20100
C654        C  0.10777834  0.22321200  0.57497661     0.36100
C655        C  0.10620932  0.22454443  0.53968405    -0.26000
C656        C  0.08987809  0.20963371  0.52195909     0.02600
C657        C  0.07464880  0.19317343  0.53954978     0.27400
C658        C  0.07583690  0.19212688  0.57480799    -0.25200
N659        N  0.12602700  0.23729837  0.59233022    -0.82600
H660        H  0.11829231  0.23671209  0.52576889     0.13200
C661        C  0.08994738  0.21040077  0.48476380     0.02600
N662        N  0.05805872  0.17759450  0.52145085    -0.81100
H663        H  0.06391022  0.17952548  0.58803402     0.18000
C664        C  0.09916373  0.19031200  0.46689435    -0.26000
C665        C  0.10047281  0.19052624  0.43163795     0.36100
C666        C  0.09223560  0.21121233  0.41363330    -0.20000
C667        C  0.08249767  0.23117314  0.43181121    -0.25200
C668        C  0.08129729  0.23096472  0.46719777     0.27400
H669        H  0.10584494  0.17449287  0.48049254     0.13200
N670        N  0.11094082  0.16993559  0.41459634    -0.82500
H671        H  0.07548307  0.24690192  0.41839308     0.18000
N672        N  0.07124800  0.25143534  0.48539373    -0.81100
H673        H  0.10052035  0.15447112  0.42074354     0.33700
H674        H  0.12862104  0.16726291  0.42387830     0.38200
H675        H  0.06577019  0.26516876  0.46873786     0.33600
H676        H  0.05540430  0.24538092  0.49785395     0.30300
H677        H  0.04823528  0.16637100  0.53809372     0.33600
H678        H  0.04522630  0.18883721  0.50965188     0.30300
H679        H  0.13831227  0.22498605  0.60318245     0.38200
H680        H  0.13618063  0.24798292  0.57538135     0.33700
C681        C  0.04393510  0.17156318  0.67460587    -0.20100
C682        C  0.02537312  0.17504020  0.65063593     0.36100
C683        C  0.00458549  0.15981771  0.65134346    -0.26000
C684        C  0.00182759  0.14162587  0.67606194     0.02600
C685        C  0.02008757  0.13877838  0.70077367     0.27400
C686        C  0.04109673  0.15369799  0.69961930    -0.25200
N687        N  0.02770839  0.19402700  0.62577665    -0.82600
H688        H  0.99054822  0.16199538  0.63242198     0.13200
C689        C  0.98014722  0.12515924  0.67509555     0.02600
N690        N  0.01714931  0.12078804  0.72692050    -0.81100
H691        H  0.05536431  0.15137540  0.71818719     0.18000
C692        C  0.98380499  0.09989636  0.67166934    -0.26000
C693        C  0.96393562  0.08365050  0.67018615     0.36100
C694        C  0.93970505  0.09275060  0.67150548    -0.20000
C695        C  0.93607333  0.11810872  0.67511858    -0.25200
C696        C  0.95603519  0.13438175  0.67712200     0.27400
H697        H  0.00228869  0.09269349  0.67016015     0.13200
N698        N  0.96862574  0.05790423  0.66826559    -0.82500
H699        H  0.91758567  0.12531070  0.67599749     0.18000
N700        N  0.95195076  0.16019655  0.68133590    -0.81100
H701        H  0.97899336  0.05455059  0.64646654     0.33700
H702        H  0.97924306  0.05297085  0.68898629     0.38200
H703        H  0.93318021  0.16401170  0.68228492     0.33600
H704        H  0.95906492  0.16522867  0.70472726     0.30300
H705        H  0.03222311  0.12098430  0.74301918     0.33600
H706        H  0.00189762  0.12581986  0.74146908     0.30300
H707        H  0.02766014  0.21081789  0.63841890     0.38200
H708        H  0.01254365  0.19407708  0.60983598     0.33700
C709        C  0.20187552  0.05129472  0.65061557    -0.20100
C710        C  0.18604440  0.05353297  0.67887758     0.36100
C711        C  0.17194201  0.07478166  0.68264334    -0.26000
C712        C  0.17294284  0.09366850  0.65872166     0.02600
C713        C  0.18880715  0.09144867  0.63059386     0.27400
C714        C  0.20321643  0.07028360  0.62695071    -0.25200
N715        N  0.18371642  0.03478122  0.70415905    -0.82600
H716        H  0.15993654  0.07651576  0.70441352     0.13200
C717        C  0.15690627  0.11540921  0.66319553     0.02600
N718        N  0.18995570  0.11051626  0.60567041    -0.85100
H719        H  0.21549878  0.06851955  0.60549403     0.18000
C720        C  0.16744185  0.13880814  0.66513685    -0.26000
C721        C  0.15276071  0.15982922  0.66845278     0.36100
C722        C  0.12700565  0.15727963  0.67051877    -0.20000
C723        C  0.11654099  0.13384598  0.66909388    -0.25200
C724        C  0.13119035  0.11289186  0.66528400     0.27400
H725        H  0.18720144  0.14065668  0.66367499     0.13200
N726        N  0.16387248  0.18370382  0.66881011    -0.82500
H727        H  0.09679643  0.13189402  0.67075403     0.18000
N728        N  0.12005366  0.08908738  0.66302159    -0.81100
H729        H  0.18296171  0.18233648  0.66714363     0.33700
H730        H  0.15817509  0.19295832  0.64719891     0.38200
H731        H  0.10098417  0.09039628  0.66517880     0.33600
H732        H  0.12379571  0.08220103  0.63893809     0.30300
H733        H  0.20259319  0.10606897  0.58668139     0.33600
H734        H  0.17279716  0.11147995  0.59421245     0.30300
H735        H  0.19485574  0.01972261  0.69898922     0.38200
H736        H  0.16563727  0.02841591  0.70373823     0.33700
C737        C  0.38185706  0.98615603  0.77106477    -0.20100
C738        C  0.36781885  0.96472163  0.76579112     0.36100
C739        C  0.34586571  0.96623976  0.74758415    -0.26000
C740        C  0.33781125  0.98865118  0.73469683     0.02600
C741        C  0.35140600  0.01010974  0.74061218     0.27400
C742        C  0.37339415  0.00862165  0.75857233    -0.25200
N743        N  0.37617828  0.94144880  0.77802916    -0.82600
H744        H  0.33521780  0.94985919  0.74281958     0.13200
C745        C  0.31563474  0.98941844  0.71372675     0.02600
N746        N  0.34265004  0.03333178  0.72865037    -0.81100
H747        H  0.38390271  0.02512675  0.76304660     0.18000
C748        C  0.29277820  0.99315326  0.72898215    -0.26000
C749        C  0.27165274  0.99590675  0.70945359     0.36100
C750        C  0.27330799  0.99542216  0.67376026    -0.20000
C751        C  0.29632852  0.99017585  0.65888869    -0.25200
C752        C  0.31743933  0.98731763  0.67850275     0.27400
H753        H  0.29138276  0.99430957  0.75619925     0.13200
N754        N  0.24849267  0.99946196  0.72603764    -0.82500
H755        H  0.29840651  0.98808900  0.63208208     0.18000
N756        N  0.34073895  0.98211236  0.66282320    -0.81100
H757        H  0.24521883  0.98441534  0.74171570     0.33700
H758        H  0.24975304  0.01506470  0.74119532     0.38200
H759        H  0.33893023  0.98060900  0.63669868     0.33600
H760        H  0.35231984  0.99703008  0.66706246     0.30300
H761        H  0.35453680  0.04740490  0.73575492     0.33600
H762        H  0.34288792  0.03289226  0.70232293     0.30300
H763        H  0.39240410  0.93718019  0.76512503     0.38200
H764        H  0.36360276  0.92764280  0.77224918     0.33700
C765        C  0.73938420  0.08946965  0.78368736    -0.20100
C766        C  0.74275396  0.06798111  0.76426398     0.36100
C767        C  0.76546463  0.06369680  0.74851267    -0.26000
C768        C  0.78512362  0.07990325  0.75265769     0.02600
C769        C  0.78209820  0.10090903  0.77290933     0.27400
C770        C  0.75919964  0.10556430  0.78804966    -0.25200
N771        N  0.72340364  0.05025302  0.76124310    -0.82600
H772        H  0.76793756  0.04752256  0.73303381     0.13200
C773        C  0.80874982  0.07463610  0.73547414     0.02600
N774        N  0.80233939  0.11731827  0.77811797    -0.81100
H775        H  0.75677206  0.12193516  0.80311747     0.18000
C776        C  0.81851700  0.09181589  0.71293828    -0.26000
C777        C  0.84059184  0.08736672  0.69577783     0.36100
C778        C  0.85335335  0.06508332  0.70068580    -0.20000
C779        C  0.84342368  0.04799397  0.72376219    -0.25200
C780        C  0.82135722  0.05256524  0.74112305     0.27400
H781        H  0.80880899  0.10877998  0.70838741     0.13200
N782        N  0.84993592  0.10556737  0.67304932    -0.82500
H783        H  0.85250018  0.03098640  0.72896698     0.18000
N784        N  0.81173670  0.03491822  0.76467219    -0.81100
H785        H  0.83672019  0.10877697  0.65463947     0.33700
H786        H  0.85247602  0.12178600  0.68657840     0.38200
H787        H  0.82304112  0.01950296  0.76581991     0.33600
H788        H  0.81195554  0.04293394  0.78859466     0.30300
H789        H  0.79707128  0.13193719  0.79356016     0.33600
H790        H  0.81583508  0.10769326  0.79114629     0.30300
H791        H  0.72010194  0.04298204  0.78522725     0.38200
H792        H  0.72888006  0.03563511  0.74593334     0.33700
C793        C  0.10104980  0.24143659  0.71093144    -0.20100
C794        C  0.12411648  0.25324428  0.70728711     0.36100
C795        C  0.12958877  0.27412659  0.72640168    -0.26000
C796        C  0.11238407  0.28398536  0.74889148     0.02600
C797        C  0.08945887  0.27250021  0.75297278     0.27400
C798        C  0.08401166  0.25141752  0.73411169    -0.25200
N799        N  0.14198845  0.24429041  0.68365769    -0.82600
H800        H  0.14714807  0.28312181  0.72292371     0.13200
C801        C  0.11781261  0.30741000  0.76611991     0.02600
N802        N  0.07167444  0.28253383  0.77608441    -0.81100
H803        H  0.06616472  0.24341558  0.73763322     0.18000
C804        C  0.10421827  0.32814448  0.75745459    -0.26000
C805        C  0.10856871  0.35085805  0.77280940     0.36100
C806        C  0.12735044  0.35299822  0.79705294    -0.20000
C807        C  0.14074036  0.33203996  0.80604582    -0.25200
C808        C  0.13616241  0.30924150  0.79076223     0.27400
H809        H  0.09001924  0.32651044  0.73863862     0.13200
N810        N  0.09356528  0.37153178  0.76432554    -0.82500
H811        H  0.15507674  0.33351928  0.82466147     0.18000
N812        N  0.15002748  0.28797304  0.80007587    -0.81100
H813        H  0.08084342  0.36687250  0.74582575     0.33700
H814        H  0.08346377  0.37627987  0.78585322     0.38200
H815        H  0.16290365  0.29242043  0.81847366     0.33600
H816        H  0.13786360  0.27547367  0.81111692     0.30300
H817        H  0.05556524  0.27215317  0.77603484     0.33600
H818        H  0.07889996  0.28118519  0.80033308     0.30300
H819        H  0.15799577  0.24021062  0.69682052     0.38200
H820        H  0.14599835  0.25828312  0.66650746     0.33700
C821        C  0.03151122  0.70483416  0.75577836    -0.20100
C822        C  0.03723680  0.72722031  0.77156263     0.36100
C823        C  0.03691453  0.74881687  0.75259539    -0.26000
C824        C  0.03133020  0.74831665  0.71823398     0.02600
C825        C  0.02623321  0.72591769  0.70217750     0.27400
C826        C  0.02656915  0.70423886  0.72115477    -0.25200
N827        N  0.04373868  0.72784878  0.80659320    -0.82600
H828        H  0.04110595  0.76615305  0.76454464     0.13200
C829        C  0.03057864  0.77164626  0.69974482     0.02600
N830        N  0.02039095  0.72540045  0.66692819    -0.81100
H831        H  0.02230690  0.68693567  0.70917707     0.18000
C832        C  0.04875925  0.77686226  0.67582251    -0.26000
C833        C  0.04951313  0.79962056  0.65962587     0.36100
C834        C  0.03172200  0.81772622  0.66734278    -0.20000
C835        C  0.01312227  0.81186204  0.69099773    -0.25200
C836        C  0.01242388  0.78906916  0.70715979     0.27400
H837        H  0.06272155  0.76334009  0.67013776     0.13200
N838        N  0.06855043  0.80433716  0.63538476    -0.82500
H839        H  0.99878517  0.82453682  0.69733215     0.18000
N840        N  0.99335511  0.78347402  0.73122455    -0.81100
H841        H  0.08543611  0.80219826  0.64729412     0.33700
H842        H  0.06733717  0.79116796  0.61634117     0.38200
H843        H  0.98143688  0.79830902  0.73420760     0.33600
H844        H  0.98296562  0.76909898  0.72137430     0.30300
H845        H  0.01715116  0.70744066  0.65899776     0.33600
H846        H  0.00396104  0.73494675  0.66381219     0.30300
H847        H  0.06007988  0.71806521  0.80921339     0.38200
H848        H  0.04740745  0.74578401  0.81426970     0.33700
loop_ 
_geom_bond_atom_site_label_1 
_geom_bond_atom_site_label_2 
_geom_bond_distance 
_geom_bond_site_symmetry_2 
_ccdc_geom_bond_type 
N1            N2   1.321       .  A
N1            C5   1.347       .  A
N1           Cu9   2.067       .  S
N2            C3   1.340       .  A
N2           Cu8   2.065       .  S
C3            C4   1.380       .  A
C3            H6   1.082       .  S
C4            C5   1.382       .  A
C4           C28   1.462       .  S
C5            H7   1.082       .  S
Cu8          N11   2.066       .  S
Cu9          N19   2.067       .  S
Cu10         N12   2.066       .  S
Cu10         N18   2.067       .  S
N11          N12   1.320       .  A
N11          C15   1.342       .  A
N12          C13   1.346   1_455  A
C13          C14   1.384       .  A
C13          H16   1.082       .  S
C14          C15   1.383   1_655  A
C14         C206   1.470       .  S
C15          H17   1.082       .  S
N18          N19   1.324       .  A
N18          C22   1.342       .  A
N19          C20   1.344       .  A
C20          C21   1.380       .  A
C20          H23   1.082       .  S
C21          C22   1.380       .  A
C21         C821   1.469       .  S
C22          H24   1.082       .  S
N25          N26   1.321       .  A
N25          C29   1.346       .  A
N25         Cu33   2.067       .  S
N26          C27   1.341       .  A
N26         Cu32   2.065       .  S
C27          C28   1.381       .  A
C27          H30   1.082       .  S
C28          C29   1.382       .  A
C29          H31   1.082       .  S
Cu32         N35   2.066       .  S
Cu33         N43   2.068       .  S
Cu34         N36   2.079       .  S
Cu34         N42   2.080       .  S
N35          N36   1.322       .  A
N35          C39   1.344       .  A
N36          C37   1.345       .  A
C37          C38   1.384       .  A
C37          H40   1.082       .  S
C38          C39   1.382       .  A
C38         C230   1.471   1_556  S
C39          H41   1.082       .  S
N42          N43   1.322       .  A
N42          C46   1.347       .  A
N43          C44   1.342       .  A
C44          C45   1.385       .  A
C44          H47   1.081       .  S
C45          C46   1.388       .  A
C45         C806   1.486       .  S
C46          H48   1.082       .  S
N49          N50   1.320       .  A
N49          C53   1.347       .  A
N49         Cu57   2.068       .  S
N50          C51   1.342       .  A
N50         Cu56   2.066       .  S
C51          C52   1.381       .  A
C51          H54   1.082       .  S
C52          C53   1.383       .  A
C52          C76   1.464       .  S
C53          H55   1.082       .  S
Cu56         N59   2.066       .  S
Cu57         N67   2.067       .  S
Cu58         N60   2.078       .  S
Cu58         N66   2.078       .  S
N59          N60   1.322       .  A
N59          C63   1.342       .  A
N60          C61   1.347       .  A
C61          C62   1.385       .  A
C61          H64   1.082       .  S
C62          C63   1.381       .  A
C62         C158   1.471   1_556  S
C63          H65   1.082       .  S
N66          N67   1.322       .  A
N66          C70   1.346       .  A
N67          C68   1.341       .  A
C68          C69   1.383       .  A
C68          H71   1.081       .  S
C69          C70   1.387       .  A
C69         C765   1.483       .  S
C70          H72   1.082       .  S
N73          N74   1.322       .  A
N73          C77   1.347       .  A
N73         Cu81   2.080       .  S
N74          C75   1.342       .  A
N74         Cu80   2.065   1_545  S
C75          C76   1.380       .  A
C75          H78   1.082       .  S
C76          C77   1.384       .  A
C77          H79   1.082       .  S
Cu80         N83   2.065       .  S
Cu81         N91   2.081   1_545  S
Cu82         N84   2.068       .  S
Cu82         N90   2.068       .  S
N83          N84   1.320       .  A
N83          C87   1.343       .  A
N84          C85   1.345       .  A
C85          C86   1.385       .  A
C85          H88   1.082       .  S
C86          C87   1.383       .  A
C86         C182   1.471       .  S
C87          H89   1.082       .  S
N90          N91   1.323       .  A
N90          C94   1.344       .  A
N91          C92   1.344       .  A
C92          C93   1.386       .  A
C92          H95   1.082   1_565  S
C93          C94   1.383       .  A
C93         C737   1.481       .  S
C94          H96   1.082       .  S
C97          C98   1.549       .  S
C97         C103   1.540       .  S
C97         C101   1.540       .  S
C97         C793   1.537       .  S
C98         H105   1.081       .  S
C98          C99   1.363       .  D
C99         C100   1.532       .  S
C99         C681   1.477       .  S
C100        C104   1.537       .  S
C100        C102   1.535       .  S
C100        H106   1.109       .  S
C101        H107   1.086       .  S
C101        C102   1.365       .  D
C102        C722   1.485       .  S
C103        H108   1.085       .  S
C103        C104   1.368       .  D
C104        C653   1.492       .  S
C109        C110   1.540       .  S
C109        C115   1.548       .  S
C109        C113   1.539   1_545  S
C109        C750   1.535   1_545  S
C110        H117   1.086       .  S
C110        C111   1.362       .  D
C111        C112   1.533       .  S
C111        C709   1.475       .  S
C112        C116   1.536       .  S
C112        C114   1.535   1_545  S
C112        H118   1.111       .  S
C113        H119   1.086       .  S
C113        C114   1.365       .  D
C114        C638   1.482       .  S
C115        H120   1.080       .  S
C115        C116   1.367       .  D
C116        C610   1.486       .  S
C121        C122   1.542       .  S
C121        C127   1.538       .  S
C121        C125   1.540       .  S
C121        C778   1.534       .  S
C122        H129   1.081       .  S
C122        C123   1.358       .  D
C123        C124   1.536       .  S
C123        C569   1.468       .  S
C124        C128   1.541       .  S
C124        C126   1.538       .  S
C124        H130   1.102       .  S
C125        H131   1.086       .  S
C125        C126   1.367       .  D
C126        C694   1.493       .  S
C127        H132   1.085       .  S
C127        C128   1.370       .  D
C128        C554   1.502       .  S
C133        C134   1.538       .  S
C133        C139   1.539       .  S
C133        C137   1.545       .  S
C133        C834   1.532       .  S
C134        H141   1.086       .  S
C134        C135   1.362       .  D
C135        C136   1.534       .  S
C135        C625   1.476       .  S
C136        C140   1.539       .  S
C136        C138   1.531       .  S
C136        H142   1.110       .  S
C137        H143   1.080   1_455  S
C137        C138   1.361       .  D
C138        C582   1.475   1_455  S
C139        H144   1.085       .  S
C139        C140   1.369       .  D
C140        C526   1.494       .  S
N145        N146   1.322       .  A
N145        C149   1.349       .  A
N145       Cu153   2.081       .  S
N146        C147   1.342       .  A
N146       Cu152   2.066       .  S
C147        C148   1.380       .  A
C147        H150   1.082       .  S
C148        C149   1.384       .  A
C148        C172   1.466       .  S
C149        H151   1.082       .  S
Cu152       N155   2.066       .  S
Cu153       N163   2.081       .  S
Cu154       N156   2.069       .  S
Cu154       N162   2.070       .  S
N155        N156   1.321       .  A
N155        C159   1.342       .  A
N156        C157   1.346       .  A
C157        C158   1.384       .  A
C157        H160   1.082       .  S
C158        C159   1.383       .  A
C159        H161   1.082       .  S
N162        N163   1.323       .  A
N162        C166   1.344       .  A
N163        C164   1.345       .  A
C164        C165   1.387       .  A
C164        H167   1.081       .  S
C165        C166   1.384       .  A
C165        C485   1.484       .  S
C166        H168   1.082       .  S
N169        N170   1.322   1_545  A
N169        C173   1.347       .  A
N169       Cu177   2.078   1_545  S
N170        C171   1.343   1_565  A
N170       Cu176   2.072       .  S
C171        C172   1.381       .  A
C171        H174   1.082       .  S
C172        C173   1.384       .  A
C173        H175   1.082       .  S
Cu176       N179   2.072       .  S
Cu177       N187   2.078       .  S
Cu178       N180   2.065       .  S
Cu178       N186   2.066       .  S
N179        N180   1.321       .  A
N179        C183   1.344       .  A
N180        C181   1.344       .  A
C181        C182   1.383   1_554  A
C181        H184   1.082       .  S
C182        C183   1.384   1_556  A
C183        H185   1.082       .  S
N186        N187   1.323       .  A
N186        C190   1.344       .  A
N187        C188   1.345       .  A
C188        C189   1.384       .  A
C188        H191   1.082       .  S
C189        C190   1.381       .  A
C189        C470   1.475       .  S
C190        H192   1.082       .  S
N193        N194   1.322       .  A
N193        C197   1.350       .  A
N193       Cu201   2.085       .  S
N194        C195   1.340       .  A
N194       Cu200   2.061       .  S
C195        C196   1.379       .  A
C195        H198   1.082       .  S
C196        C197   1.386       .  A
C196        C220   1.467       .  S
C197        H199   1.082       .  S
Cu200       N203   2.061       .  S
Cu201       N211   2.086       .  S
Cu202       N204   2.070       .  S
Cu202       N210   2.071   1_655  S
N203        N204   1.320   1_455  A
N203        C207   1.342       .  A
N204        C205   1.346       .  A
C205        C206   1.385   1_554  A
C205        H208   1.082       .  S
C206        C207   1.382   1_656  A
C207        H209   1.082       .  S
N210        N211   1.325       .  A
N210        C214   1.343   1_455  A
N211        C212   1.347       .  A
C212        C213   1.384       .  A
C212        H215   1.082       .  S
C213        C214   1.380   1_455  A
C213        C429   1.475       .  S
C214        H216   1.082       .  S
N217        N218   1.323       .  A
N217        C221   1.350       .  A
N217       Cu225   2.088       .  S
N218        C219   1.341       .  A
N218       Cu224   2.069       .  S
C219        C220   1.380       .  A
C219        H222   1.082       .  S
C220        C221   1.386       .  A
C221        H223   1.082       .  S
Cu224       N227   2.068       .  S
Cu225       N235   2.087       .  S
Cu226       N228   2.062       .  S
Cu226       N234   2.062       .  S
N227        N228   1.319       .  A
N227        C231   1.345       .  A
N228        C229   1.344       .  A
C229        C230   1.383       .  A
C229        H232   1.082       .  S
C230        C231   1.385       .  A
C231        H233   1.082       .  S
N234        N235   1.323       .  A
N234        C238   1.340       .  A
N235        C236   1.349       .  A
C236        C237   1.388       .  A
C236        H239   1.082       .  S
C237        C238   1.379       .  A
C237        C414   1.477       .  S
C238        H240   1.082       .  S
C241        C242   1.543       .  S
C241        C247   1.534       .  S
C241        C245   1.543       .  S
C241        C401   1.533       .  S
C242        H249   1.083       .  S
C242        C243   1.360       .  D
C243        C244   1.536       .  S
C243        C386   1.473       .  S
C244        C248   1.540       .  S
C244        C246   1.535       .  S
C244        H250   1.107       .  S
C245        H251   1.086       .  S
C245        C246   1.365       .  D
C246        C345   1.482       .  S
C247        H252   1.086       .  S
C247        C248   1.367       .  D
C248        C666   1.493       .  S
C253        C254   1.548   1_545  S
C253        C259   1.535       .  S
C253        C257   1.545       .  S
C253        C457   1.536       .  S
C254        H261   1.083       .  S
C254        C255   1.364       .  D
C255        C256   1.530   1_565  S
C255        C330   1.473       .  S
C256        C260   1.536       .  S
C256        C258   1.532       .  S
C256        H262   1.108       .  S
C257        H263   1.085       .  S
C257        C258   1.367       .  D
C258        C373   1.484       .  S
C259        H264   1.086       .  S
C259        C260   1.366       .  D
C260        C597   1.491       .  S
C265        C266   1.545   1_455  S
C265        C271   1.535       .  S
C265        C269   1.539       .  S
C265        C442   1.534       .  S
C266        H273   1.082       .  S
C266        C267   1.364       .  D
C267        C268   1.538   1_655  S
C267        C289   1.475       .  S
C268        C272   1.539       .  S
C268        C270   1.540       .  S
C268        H274   1.103       .  S
C269        H275   1.086       .  S
C269        C270   1.369       .  D
C270        C317   1.495       .  S
C271        H276   1.086       .  S
C271        C272   1.365       .  D
C272        C513   1.494       .  S
C277        C278   1.537       .  S
C277        C283   1.548       .  S
C277        C281   1.537       .  S
C277        C498   1.537       .  S
C278        H285   1.086       .  S
C278        C279   1.362       .  D
C279        C280   1.538       .  S
C279        C358   1.472       .  S
C280        C284   1.534       .  S
C280        C282   1.540       .  S
C280        H286   1.108       .  S
C281        H287   1.086       .  S
C281        C282   1.366       .  D
C282        C302   1.494       .  S
C283        H288   1.080       .  S
C283        C284   1.365       .  D
C284        C541   1.486       .  S
C289        C290   1.414       .  A
C289        C294   1.401       .  A
C290        C291   1.401       .  A
C290        N295   1.438       .  S
C291        C292   1.405       .  A
C291        H296   1.084       .  S
C292        C293   1.412       .  A
C292        C297   1.488       .  S
C293        C294   1.405       .  A
C293        N298   1.438       .  S
C294        H299   1.084       .  S
N295        H315   1.043       .  S
N295        H316   1.044       .  S
C297        C300   1.403   1_565  A
C297        C304   1.410       .  A
N298        H313   1.046       .  S
N298        H314   1.046       .  S
C300        C301   1.405       .  A
C300        H305   1.084       .  S
C301        C302   1.414       .  A
C301        N306   1.436       .  S
C302        C303   1.408       .  A
C303        C304   1.405   1_545  A
C303        H307   1.083       .  S
C304        N308   1.438       .  S
N306        H309   1.046       .  S
N306        H310   1.044       .  S
N308        H311   1.046       .  S
N308        H312   1.046       .  S
C317        C318   1.414       .  A
C317        C322   1.407       .  A
C318        C319   1.403       .  A
C318        N323   1.431       .  S
C319        C320   1.403       .  A
C319        H324   1.083       .  S
C320        C321   1.412       .  A
C320        C325   1.490       .  S
C321        C322   1.404       .  A
C321        N326   1.438       .  S
C322        H327   1.082       .  S
N323        H343   1.046       .  S
N323        H344   1.046       .  S
C325        C328   1.406       .  A
C325        C332   1.413       .  A
N326        H341   1.046       .  S
N326        H342   1.045       .  S
C328        C329   1.400       .  A
C328        H333   1.084       .  S
C329        C330   1.413       .  A
C329        N334   1.439       .  S
C330        C331   1.401       .  A
C331        C332   1.405       .  A
C331        H335   1.083   1_565  S
C332        N336   1.438       .  S
N334        H337   1.045       .  S
N334        H338   1.043       .  S
N336        H339   1.046   1_565  S
N336        H340   1.045       .  S
C345        C346   1.407       .  A
C345        C350   1.405       .  A
C346        C347   1.399       .  A
C346        N351   1.431       .  S
C347        C348   1.402   1_455  A
C347        H352   1.084       .  S
C348        C349   1.412       .  A
C348        C353   1.483       .  S
C349        C350   1.407   1_655  A
C349        N354   1.438       .  S
C350        H355   1.084       .  S
N351        H371   1.045       .  S
N351        H372   1.046       .  S
C353        C356   1.404       .  A
C353        C360   1.413       .  A
N354        H369   1.046       .  S
N354        H370   1.045       .  S
C356        C357   1.405       .  A
C356        H361   1.084       .  S
C357        C358   1.407       .  A
C357        N362   1.437       .  S
C358        C359   1.398       .  A
C359        C360   1.403       .  A
C359        H363   1.083       .  S
C360        N364   1.438       .  S
N362        H365   1.046       .  S
N362        H366   1.045       .  S
N364        H367   1.046       .  S
N364        H368   1.045       .  S
C373        C374   1.413       .  A
C373        C378   1.405       .  A
C374        C375   1.405       .  A
C374        N379   1.438       .  S
C375        C376   1.403       .  A
C375        H380   1.084       .  S
C376        C377   1.407       .  A
C376        C381   1.478       .  S
C377        C378   1.402       .  A
C377        N382   1.438       .  S
C378        H383   1.081       .  S
N379        H399   1.046       .  S
N379        H400   1.046       .  S
C381        C384   1.403       .  A
C381        C388   1.410       .  A
N382        H397   1.046       .  S
N382        H398   1.046       .  S
C384        C385   1.405       .  A
C384        H389   1.084       .  S
C385        C386   1.410       .  A
C385        N390   1.438       .  S
C386        C387   1.398       .  A
C387        C388   1.402       .  A
C387        H391   1.081       .  S
C388        N392   1.438       .  S
N390        H393   1.045       .  S
N390        H394   1.046       .  S
N392        H395   1.045       .  S
N392        H396   1.046       .  S
C401        C402   1.422       .  A
C401        C406   1.414       .  A
C402        C403   1.404       .  A
C402        N407   1.439       .  S
C403        C404   1.396       .  A
C403        H408   1.084       .  S
C404        C405   1.403       .  A
C404        C409   1.473       .  S
C405        C406   1.403       .  A
C405        N410   1.438       .  S
C406        H411   1.078       .  S
N407        H427   1.045       .  S
N407        H428   1.046       .  S
C409        C412   1.401       .  A
C409        C416   1.407       .  A
N410        H425   1.046       .  S
N410        H426   1.045       .  S
C412        C413   1.404       .  A
C412        H417   1.084       .  S
C413        C414   1.408       .  A
C413        N418   1.432       .  S
C414        C415   1.405       .  A
C415        C416   1.402       .  A
C415        H419   1.084       .  S
C416        N420   1.438       .  S
N418        H421   1.046       .  S
N418        H422   1.046       .  S
N420        H423   1.046       .  S
N420        H424   1.045       .  S
C429        C430   1.410   1_455  A
C429        C434   1.403       .  A
C430        C431   1.406       .  A
C430        N435   1.437       .  S
C431        C432   1.402   1_655  A
C431        H436   1.084       .  S
C432        C433   1.407       .  A
C432        C437   1.475       .  S
C433        C434   1.404       .  A
C433        N438   1.438       .  S
C434        H439   1.084       .  S
N435        H455   1.046       .  S
N435        H456   1.046       .  S
C437        C440   1.395       .  A
C437        C444   1.406   1_455  A
N438        H453   1.046       .  S
N438        H454   1.045       .  S
C440        C441   1.399       .  A
C440        H445   1.084       .  S
C441        C442   1.420       .  A
C441        N446   1.434       .  S
C442        C443   1.412   1_455  A
C443        C444   1.408       .  A
C443        H447   1.076       .  S
C444        N448   1.438       .  S
N446        H449   1.045       .  S
N446        H450   1.046       .  S
N448        H451   1.046       .  S
N448        H452   1.045       .  S
C457        C458   1.424       .  A
C457        C462   1.413   1_545  A
C458        C459   1.405       .  A
C458        N463   1.439       .  S
C459        C460   1.396   1_545  A
C459        H464   1.084       .  S
C460        C461   1.404       .  A
C460        C465   1.476       .  S
C461        C462   1.406       .  A
C461        N466   1.438       .  S
C462        H467   1.078       .  S
N463        H483   1.046       .  S
N463        H484   1.044       .  S
C465        C468   1.401       .  A
C465        C472   1.408       .  A
N466        H481   1.046       .  S
N466        H482   1.045       .  S
C468        C469   1.405       .  A
C468        H473   1.084       .  S
C469        C470   1.411       .  A
C469        N474   1.438       .  S
C470        C471   1.403       .  A
C471        C472   1.405       .  A
C471        H475   1.084       .  S
C472        N476   1.438   1_565  S
N474        H477   1.046       .  S
N474        H478   1.046       .  S
N476        H479   1.045       .  S
N476        H480   1.045   1_545  S
C485        C486   1.413       .  A
C485        C490   1.406       .  A
C486        C487   1.403       .  A
C486        N491   1.437       .  S
C487        C488   1.402       .  A
C487        H492   1.084       .  S
C488        C489   1.409       .  A
C488        C493   1.483       .  S
C489        C490   1.406       .  A
C489        N494   1.438       .  S
C490        H495   1.083       .  S
N491        H511   1.046       .  S
N491        H512   1.046       .  S
C493        C496   1.399       .  A
C493        C500   1.405       .  A
N494        H509   1.046       .  S
N494        H510   1.045       .  S
C496        C497   1.407       .  A
C496        H501   1.084       .  S
C497        C498   1.424       .  A
C497        N502   1.439       .  S
C498        C499   1.413       .  A
C499        C500   1.401       .  A
C499        H503   1.074       .  S
C500        N504   1.439       .  S
N502        H505   1.046       .  S
N502        H506   1.044       .  S
N504        H507   1.046       .  S
N504        H508   1.046       .  S
C513        C514   1.413       .  A
C513        C518   1.409       .  A
C514        C515   1.403       .  A
C514        N519   1.430   1_455  S
C515        C516   1.399       .  A
C515        H520   1.084       .  S
C516        C517   1.406       .  A
C516        C521   1.477       .  S
C517        C518   1.404       .  A
C517        N522   1.438       .  S
C518        H523   1.083       .  S
N519        H539   1.045       .  S
N519        H540   1.046   1_655  S
C521        C524   1.400       .  A
C521        C528   1.405       .  A
N522        H537   1.046       .  S
N522        H538   1.046       .  S
C524        C525   1.405       .  A
C524        H529   1.084       .  S
C525        C526   1.418       .  A
C525        N530   1.438   1_455  S
C526        C527   1.407       .  A
C527        C528   1.403       .  A
C527        H531   1.079       .  S
C528        N532   1.438       .  S
N530        H533   1.046       .  S
N530        H534   1.046       .  S
N532        H535   1.046       .  S
N532        H536   1.045       .  S
C541        C542   1.414       .  A
C541        C546   1.403       .  A
C542        C543   1.403       .  A
C542        N547   1.438       .  S
C543        C544   1.401       .  A
C543        H548   1.084       .  S
C544        C545   1.416       .  A
C544        C549   1.477       .  S
C545        C546   1.399       .  A
C545        N550   1.439       .  S
C546        H551   1.081       .  S
N547        H567   1.046       .  S
N547        H568   1.046       .  S
C549        C552   1.396       .  A
C549        C556   1.405       .  A
N550        H565   1.046       .  S
N550        H566   1.043       .  S
C552        C553   1.401       .  A
C552        H557   1.084       .  S
C553        C554   1.419       .  A
C553        N558   1.429       .  S
C554        C555   1.411       .  A
C555        C556   1.404       .  A
C555        H559   1.082       .  S
C556        N560   1.438       .  S
N558        H561   1.046       .  S
N558        H562   1.046       .  S
N560        H563   1.045       .  S
N560        H564   1.045       .  S
C569        C570   1.408       .  A
C569        C574   1.397   1_545  A
C570        C571   1.404   1_545  A
C570        N575   1.438       .  S
C571        C572   1.404       .  A
C571        H576   1.084       .  S
C572        C573   1.410       .  A
C572        C577   1.476       .  S
C573        C574   1.399       .  A
C573        N578   1.438       .  S
C574        H579   1.081   1_565  S
N575        H595   1.044       .  S
N575        H596   1.046       .  S
C577        C580   1.402       .  A
C577        C584   1.409       .  A
N578        H593   1.046       .  S
N578        H594   1.046       .  S
C580        C581   1.402       .  A
C580        H585   1.084       .  S
C581        C582   1.411       .  A
C581        N586   1.438       .  S
C582        C583   1.401   1_655  A
C583        C584   1.402   1_455  A
C583        H587   1.083       .  S
C584        N588   1.438   1_655  S
N586        H589   1.045       .  S
N586        H590   1.046       .  S
N588        H591   1.046       .  S
N588        H592   1.045       .  S
C597        C598   1.413       .  A
C597        C602   1.408       .  A
C598        C599   1.401       .  A
C598        N603   1.431   1_545  S
C599        C600   1.398       .  A
C599        H604   1.084   1_545  S
C600        C601   1.406       .  A
C600        C605   1.475       .  S
C601        C602   1.405       .  A
C601        N606   1.437       .  S
C602        H607   1.083       .  S
N603        H623   1.046   1_565  S
N603        H624   1.045       .  S
C605        C608   1.399   1_545  A
C605        C612   1.407       .  A
N606        H621   1.046       .  S
N606        H622   1.045       .  S
C608        C609   1.403       .  A
C608        H613   1.084       .  S
C609        C610   1.416   1_565  A
C609        N614   1.438       .  S
C610        C611   1.405       .  A
C611        C612   1.405       .  A
C611        H615   1.082       .  S
C612        N616   1.437       .  S
N614        H617   1.046       .  S
N614        H618   1.044       .  S
N616        H619   1.046       .  S
N616        H620   1.046       .  S
C625        C626   1.409       .  A
C625        C630   1.400       .  A
C626        C627   1.406       .  A
C626        N631   1.438       .  S
C627        C628   1.403       .  A
C627        H632   1.084       .  S
C628        C629   1.411       .  A
C628        C633   1.481       .  S
C629        C630   1.404       .  A
C629        N634   1.438       .  S
C630        H635   1.082       .  S
N631        H651   1.045       .  S
N631        H652   1.045       .  S
C633        C636   1.402       .  A
C633        C640   1.410       .  A
N634        H649   1.046       .  S
N634        H650   1.046       .  S
C636        C637   1.405       .  A
C636        H641   1.084       .  S
C637        C638   1.412       .  A
C637        N642   1.437       .  S
C638        C639   1.403       .  A
C639        C640   1.405       .  A
C639        H643   1.083       .  S
C640        N644   1.438       .  S
N642        H645   1.045       .  S
N642        H646   1.045       .  S
N644        H647   1.046       .  S
N644        H648   1.046       .  S
C653        C654   1.417       .  A
C653        C658   1.406       .  A
C654        C655   1.406       .  A
C654        N659   1.438       .  S
C655        C656   1.400       .  A
C655        H660   1.084       .  S
C656        C657   1.406       .  A
C656        C661   1.477       .  S
C657        C658   1.402       .  A
C657        N662   1.438       .  S
C658        H663   1.080       .  S
N659        H679   1.046       .  S
N659        H680   1.046       .  S
C661        C664   1.398       .  A
C661        C668   1.407       .  A
N662        H677   1.046       .  S
N662        H678   1.046       .  S
C664        C665   1.400       .  A
C664        H669   1.084       .  S
C665        C666   1.413       .  A
C665        N670   1.429       .  S
C666        C667   1.409       .  A
C667        C668   1.405       .  A
C667        H671   1.083       .  S
C668        N672   1.438       .  S
N670        H673   1.046       .  S
N670        H674   1.046       .  S
N672        H675   1.046       .  S
N672        H676   1.046       .  S
C681        C682   1.408       .  A
C681        C686   1.400       .  A
C682        C683   1.406       .  A
C682        N687   1.437       .  S
C683        C684   1.404       .  A
C683        H688   1.084   1_455  S
C684        C685   1.412       .  A
C684        C689   1.486   1_455  S
C685        C686   1.406       .  A
C685        N690   1.437       .  S
C686        H691   1.084       .  S
N687        H707   1.045       .  S
N687        H708   1.046       .  S
C689        C692   1.401       .  A
C689        C696   1.411       .  A
N690        H705   1.046       .  S
N690        H706   1.046       .  S
C692        C693   1.402       .  A
C692        H697   1.084   1_655  S
C693        C694   1.413       .  A
C693        N698   1.432       .  S
C694        C695   1.407       .  A
C695        C696   1.408       .  A
C695        H699   1.083       .  S
C696        N700   1.438       .  S
N698        H701   1.046       .  S
N698        H702   1.045       .  S
N700        H703   1.046       .  S
N700        H704   1.046       .  S
C709        C710   1.415       .  A
C709        C714   1.401       .  A
C710        C711   1.401       .  A
C710        N715   1.439       .  S
C711        C712   1.403       .  A
C711        H716   1.084       .  S
C712        C713   1.412       .  A
C712        C717   1.486       .  S
C713        C714   1.406       .  A
C713        N718   1.438       .  S
C714        H719   1.083       .  S
N715        H735   1.043       .  S
N715        H736   1.046       .  S
C717        C720   1.403       .  A
C717        C724   1.411       .  A
N718        H733   1.046       .  S
N718        H734   1.045       .  S
C720        C721   1.406       .  A
C720        H725   1.084       .  S
C721        C722   1.413       .  A
C721        N726   1.438       .  S
C722        C723   1.403       .  A
C723        C724   1.404       .  A
C723        H727   1.084       .  S
C724        N728   1.438       .  S
N726        H729   1.046       .  S
N726        H730   1.045       .  S
N728        H731   1.046       .  S
N728        H732   1.046       .  S
C737        C738   1.415       .  A
C737        C742   1.404   1_565  A
C738        C739   1.406       .  A
C738        N743   1.437       .  S
C739        C740   1.400       .  A
C739        H744   1.084       .  S
C740        C741   1.407   1_565  A
C740        C745   1.475       .  S
C741        C742   1.403       .  A
C741        N746   1.438       .  S
C742        H747   1.083       .  S
N743        H763   1.045       .  S
N743        H764   1.046       .  S
C745        C748   1.397       .  A
C745        C752   1.405       .  A
N746        H761   1.045       .  S
N746        H762   1.045       .  S
C748        C749   1.402       .  A
C748        H753   1.084       .  S
C749        C750   1.419       .  A
C749        N754   1.433       .  S
C750        C751   1.413       .  A
C751        C752   1.404       .  A
C751        H755   1.075       .  S
C752        N756   1.439       .  S
N754        H757   1.046       .  S
N754        H758   1.046   1_565  S
N756        H759   1.045       .  S
N756        H760   1.045       .  S
C765        C766   1.415       .  A
C765        C770   1.404       .  A
C766        C767   1.403       .  A
C766        N771   1.438       .  S
C767        C768   1.401       .  A
C767        H772   1.084       .  S
C768        C769   1.410       .  A
C768        C773   1.482       .  S
C769        C770   1.405       .  A
C769        N774   1.438       .  S
C770        H775   1.083       .  S
N771        H791   1.046       .  S
N771        H792   1.046       .  S
C773        C776   1.399       .  A
C773        C780   1.408       .  A
N774        H789   1.045       .  S
N774        H790   1.046       .  S
C776        C777   1.400       .  A
C776        H781   1.084       .  S
C777        C778   1.417       .  A
C777        N782   1.433       .  S
C778        C779   1.413       .  A
C779        C780   1.405       .  A
C779        H783   1.074       .  S
C780        N784   1.439       .  S
N782        H785   1.046       .  S
N782        H786   1.045       .  S
N784        H787   1.046       .  S
N784        H788   1.045       .  S
C793        C794   1.420       .  A
C793        C798   1.412       .  A
C794        C795   1.403       .  A
C794        N799   1.433       .  S
C795        C796   1.398       .  A
C795        H800   1.084       .  S
C796        C797   1.407       .  A
C796        C801   1.481       .  S
C797        C798   1.406       .  A
C797        N802   1.438       .  S
C798        H803   1.075       .  S
N799        H819   1.046       .  S
N799        H820   1.046       .  S
C801        C804   1.399       .  A
C801        C808   1.409       .  A
N802        H817   1.045       .  S
N802        H818   1.046       .  S
C804        C805   1.403       .  A
C804        H809   1.084       .  S
C805        C806   1.416       .  A
C805        N810   1.437       .  S
C806        C807   1.407       .  A
C807        C808   1.408       .  A
C807        H811   1.083       .  S
C808        N812   1.437       .  S
N810        H813   1.046       .  S
N810        H814   1.045       .  S
N812        H815   1.046       .  S
N812        H816   1.046       .  S
C821        C822   1.410       .  A
C821        C826   1.403       .  A
C822        C823   1.400       .  A
C822        N827   1.438       .  S
C823        C824   1.400       .  A
C823        H828   1.084       .  S
C824        C825   1.408       .  A
C824        C829   1.472       .  S
C825        C826   1.404       .  A
C825        N830   1.437       .  S
C826        H831   1.084       .  S
N827        H847   1.046       .  S
N827        H848   1.046       .  S
C829        C832   1.396       .  A
C829        C836   1.404       .  A
N830        H845   1.046       .  S
N830        H846   1.046       .  S
C832        C833   1.400       .  A
C832        H837   1.084       .  S
C833        C834   1.418       .  A
C833        N838   1.433       .  S
C834        C835   1.413       .  A
C835        C836   1.401       .  A
C835        H839   1.073   1_455  S
C836        N840   1.439   1_455  S
N838        H841   1.046       .  S
N838        H842   1.046       .  S
N840        H843   1.046       .  S
N840        H844   1.046       .  S
