geometry optimzed in LAMMPS
_audit_creation_date              2020-12-01 
_audit_creation_method            'lammps2cif' 
_symmetry_space_group_name_H-M    'P1' 
_symmetry_Int_Tables_number       1 
_symmetry_cell_setting            triclinic 
loop_ 
_symmetry_equiv_pos_as_xyz 
  x,y,z 
_cell_length_a                    53.53175871 
_cell_length_b                    53.596606844848864 
_cell_length_c                    37.604926063574624 
_cell_angle_alpha                 90.13607447736699 
_cell_angle_beta                  89.94883748116735 
_cell_angle_gamma                 90.03009772282849 
loop_ 
_atom_site_label 
_atom_site_type_symbol 
_atom_site_fract_x 
_atom_site_fract_y 
_atom_site_fract_z 
_atom_site_charge 
O1          O  0.52622473  0.80284189  0.03700713    -0.73100
O2          O  0.47161884  0.80702893  0.96350006    -0.74100
O3          O  0.52454659  0.80468521  0.96149271    -0.62700
O4          O  0.47303684  0.80512552  0.03879561    -0.71100
O5          O  0.47527019  0.84625374  0.04179112    -0.70600
O6          O  0.52574941  0.84590212  0.96285129    -0.61900
O7          O  0.47265932  0.84837357  0.96695979    -0.74400
O8          O  0.52828318  0.84403238  0.03827510    -0.73200
Cu9        Cu  0.49881264  0.80348661  0.00015397     1.04600
Cu10       Cu  0.50060079  0.84756014  0.00255213     1.04300
C11         C  0.53606178  0.82283889  0.04920345     0.93100
C12         C  0.46337645  0.82837426  0.95402387     0.92300
C13         C  0.53321258  0.82521062  0.94955927     0.84400
C14         C  0.46577207  0.82570099  0.05247027     0.90700
N15         N  0.66660280  0.87185829  0.70670118    -0.27400
N16         N  0.68784361  0.86269875  0.69436774    -0.35300
C17         C  0.69548627  0.87662167  0.66672410     0.00900
C18         C  0.67825551  0.89547609  0.66149604     0.06900
C19         C  0.66006110  0.89174863  0.68706410    -0.06200
H20         H  0.71178809  0.87261501  0.65069459     0.07600
H21         H  0.64316217  0.90250288  0.69082306     0.08800
Cu22       Cu  0.70441208  0.83050267  0.71367138     0.44200
Cu23       Cu  0.64723522  0.85645043  0.74898657     0.42000
Cu24       Cu  0.67229454  0.79884813  0.78524350     0.43900
N25         N  0.71607273  0.79673330  0.73474232    -0.34800
N26         N  0.70432902  0.78506934  0.76081427    -0.29100
C27         C  0.71639940  0.76362328  0.76790537    -0.05200
C28         C  0.73664500  0.76169644  0.74511754     0.07000
C29         C  0.73585365  0.78300816  0.72447861     0.00800
H30         H  0.71076233  0.75038481  0.78804679     0.08500
H31         H  0.74865813  0.78817549  0.70347638     0.07600
N32         N  0.64111888  0.81711493  0.80556517    -0.36300
N33         N  0.63213887  0.83813627  0.79241363    -0.28400
C34         C  0.61233207  0.84535502  0.81188013    -0.03700
C35         C  0.60877162  0.82817515  0.83881395     0.04900
C36         C  0.62717059  0.81037736  0.83372638     0.03000
H37         H  0.60113957  0.86165754  0.80627241     0.08100
H38         H  0.63037547  0.79389285  0.84964068     0.07000
N39         N  0.35880208  0.84360220  0.80787852    -0.27400
N40         N  0.34770447  0.82475065  0.82417942    -0.35300
C41         C  0.36070418  0.81903958  0.85368917     0.00900
C42         C  0.38090519  0.83502855  0.85593929     0.06900
C43         C  0.37925158  0.85022806  0.82642475    -0.06200
H44         H  0.35639447  0.80370806  0.87131945     0.07600
H45         H  0.39232096  0.86457492  0.81848490     0.08800
Cu46       Cu  0.31691451  0.80595934  0.80372698     0.44200
Cu47       Cu  0.34656010  0.85874006  0.76015054     0.42000
Cu48       Cu  0.29323298  0.82881290  0.71972137     0.43900
N49         N  0.28767429  0.78937990  0.77606764    -0.34800
N50         N  0.27899793  0.79787951  0.74549930    -0.29100
C51         C  0.25999588  0.78332214  0.73467966    -0.05200
C52         C  0.25660102  0.76470872  0.75957217     0.07000
C53         C  0.27448085  0.76905442  0.78542122     0.00800
H54         H  0.24943823  0.78615362  0.71050951     0.08500
H55         H  0.27753199  0.75841928  0.80943873     0.07600
N56         N  0.31055924  0.85993921  0.69864514    -0.36300
N57         N  0.33028353  0.87079800  0.71308931    -0.28400
C58         C  0.33697146  0.89040296  0.69290374    -0.03700
C59         C  0.32043045  0.89209753  0.66475673     0.04900
C60         C  0.30406923  0.87237304  0.66906615     0.03000
H61         H  0.35245894  0.90275045  0.69859718     0.08100
H62         H  0.28875028  0.86721056  0.65182339     0.07000
N63         N  0.67429918  0.86571395  0.28683052    -0.27400
N64         N  0.69525687  0.85618501  0.29936127    -0.35300
C65         C  0.70252174  0.86927441  0.32810146     0.00900
C66         C  0.68541368  0.88821581  0.33386575     0.06900
C67         C  0.66762600  0.88519251  0.30739078    -0.06200
H68         H  0.71859690  0.86469449  0.34416788     0.07600
H69         H  0.65101372  0.89633211  0.30344809     0.08800
Cu70       Cu  0.71261299  0.82554871  0.27706171     0.44200
Cu71       Cu  0.65595943  0.85115637  0.24252591     0.42000
Cu72       Cu  0.68405814  0.79662137  0.19958318     0.43900
N73         N  0.72723826  0.79493923  0.25104879    -0.34800
N74         N  0.71700849  0.78412226  0.22296536    -0.29100
C75         C  0.73114926  0.76441752  0.21346988    -0.05200
C76         C  0.75115171  0.76294124  0.23672683     0.07000
C77         C  0.74807512  0.78257398  0.26009713     0.00800
H78         H  0.72705040  0.75201406  0.19149854     0.08500
H79         H  0.75987597  0.78736338  0.28243428     0.07600
N80         N  0.65116371  0.81351734  0.18244893    -0.36300
N81         N  0.64121358  0.83340904  0.19783621    -0.28400
C82         C  0.62040561  0.83989154  0.18005657    -0.03700
C83         C  0.61709938  0.82337573  0.15210355     0.04900
C84         C  0.63680591  0.80676412  0.15461772     0.03000
H85         H  0.60840988  0.85531779  0.18727262     0.08100
H86         H  0.64060520  0.79112190  0.13721214     0.07000
N87         N  0.36453502  0.83846308  0.20594958    -0.27400
N88         N  0.35343776  0.81971685  0.18939877    -0.35300
C89         C  0.36658780  0.81398501  0.16001823     0.00900
C90         C  0.38671585  0.83012394  0.15779766     0.06900
C91         C  0.38495640  0.84522264  0.18754741    -0.06200
H92         H  0.36196205  0.79905170  0.14176705     0.07600
H93         H  0.39796400  0.85947152  0.19601637     0.08800
Cu94       Cu  0.32132947  0.80248474  0.20802337     0.44200
Cu95       Cu  0.35183819  0.85397775  0.25295115     0.42000
Cu96       Cu  0.29438749  0.82917060  0.28825823     0.43900
N97         N  0.28967490  0.78858344  0.23285086    -0.34800
N98         N  0.27989709  0.79826801  0.26209384    -0.29100
C99         C  0.25984361  0.78470864  0.27162306    -0.05200
C100        C  0.25688533  0.76560170  0.24721012     0.07000
C101        C  0.27610258  0.76861035  0.22299796     0.00800
H102        H  0.24845908  0.78836244  0.29483715     0.08500
H103        H  0.28013006  0.75701055  0.20012536     0.07600
N104        N  0.31264308  0.85990955  0.30957830    -0.36300
N105        N  0.33406269  0.86855375  0.29714343    -0.28400
C106        C  0.34115528  0.88836133  0.31668859    -0.03700
C107        C  0.32312160  0.89259242  0.34227517     0.04900
C108        C  0.30539018  0.87415068  0.33720877     0.03000
H109        H  0.35795420  0.89913794  0.31220088     0.08100
H110        H  0.28859995  0.87114261  0.35264352     0.07000
O111        O  0.65562990  0.97377205  0.53131270    -0.73100
O112        O  0.65729449  0.02479894  0.45357658    -0.74100
O113        O  0.65827010  0.97184042  0.45586932    -0.62700
O114        O  0.65463425  0.02667841  0.52882077    -0.71100
O115        O  0.69587354  0.02747985  0.53122771    -0.70600
O116        O  0.69950460  0.97245790  0.45828466    -0.61900
O117        O  0.69857523  0.02557316  0.45591611    -0.74400
O118        O  0.69689604  0.97457374  0.53388202    -0.73200
Cu119      Cu  0.65504989  0.99920686  0.49225900     1.04600
Cu120      Cu  0.69914759  0.00001909  0.49490703     1.04300
C121        C  0.67599836  0.96614550  0.54515675     0.93100
C122        C  0.67810968  0.03355995  0.44266925     0.92300
C123        C  0.67933338  0.96334901  0.44544024     0.84400
C124        C  0.67475584  0.03583224  0.54171166     0.90700
O125        O  0.34358184  0.97651867  0.46611090    -0.73100
O126        O  0.34031869  0.02890145  0.54244741    -0.74100
O127        O  0.34282449  0.97597675  0.54161762    -0.62700
O128        O  0.34102493  0.02934932  0.46681463    -0.71100
O129        O  0.29975279  0.02763733  0.46623992    -0.70600
O130        O  0.30156190  0.97409499  0.54066851    -0.61900
O131        O  0.29911946  0.02706440  0.54191087    -0.74400
O132        O  0.30225550  0.97487041  0.46499621    -0.73200
Cu133      Cu  0.34335532  0.00276426  0.50429163     1.04600
Cu134      Cu  0.29924536  0.00084499  0.50345245     1.04300
C135        C  0.32343479  0.96740962  0.45337468     0.93100
C136        C  0.31924402  0.03635563  0.55448947     0.92300
C137        C  0.32245808  0.96649615  0.55303100     0.84400
C138        C  0.32011286  0.03681085  0.45432975     0.90700
O139        O  0.47403099  0.16122266  0.96447365    -0.73100
O140        O  0.52826852  0.16158223  0.03767424    -0.74100
O141        O  0.47548804  0.16201496  0.03987945    -0.62700
O142        O  0.52706534  0.16086611  0.96245876    -0.71100
O143        O  0.52746618  0.20205776  0.96182084    -0.70600
O144        O  0.47575199  0.20324075  0.03945490    -0.61900
O145        O  0.52879093  0.20283041  0.03731036    -0.74400
O146        O  0.47426074  0.20246097  0.96380291    -0.73200
Cu147      Cu  0.50120026  0.16002833  0.00110846     1.04600
Cu148      Cu  0.50157400  0.20409489  0.00052583     1.04300
C149        C  0.46541654  0.18177761  0.95246410     0.93100
C150        C  0.53719162  0.18213810  0.04920002     0.92300
C151        C  0.46749908  0.18277430  0.05225253     0.84400
C152        C  0.53564154  0.18128545  0.94985560     0.90700
N153        N  0.36045477  0.16606818  0.80417363    -0.27400
N154        N  0.35240129  0.18782992  0.81618334    -0.35300
C155        C  0.36672531  0.19488380  0.84382801     0.00900
C156        C  0.38448556  0.17657335  0.84976319     0.06900
C157        C  0.38007404  0.15870931  0.82384657    -0.06200
H158        H  0.36455088  0.21220507  0.85833491     0.07600
H159        H  0.39093404  0.14212312  0.81851518     0.08800
Cu160      Cu  0.32280461  0.20726267  0.79364956     0.44200
Cu161      Cu  0.34545998  0.14790817  0.76029145     0.42000
Cu162      Cu  0.29466658  0.17862584  0.71539966     0.43900
N163        N  0.29234691  0.22207321  0.76672180    -0.34800
N164        N  0.28206844  0.21149880  0.73847486    -0.29100
C165        C  0.26233462  0.22518271  0.72813612    -0.05200
C166        C  0.26008009  0.24534800  0.75089878     0.07000
C167        C  0.27942586  0.24283229  0.77501841     0.00800
H168        H  0.25035232  0.22057888  0.70591957     0.08500
H169        H  0.28355942  0.25491202  0.79733684     0.07600
N170        N  0.31060449  0.14563065  0.69745999    -0.36300
N171        N  0.32909588  0.13429356  0.71413441    -0.28400
C172        C  0.33544997  0.11364289  0.69587868    -0.03700
C173        C  0.32046440  0.11204023  0.66592177     0.04900
C174        C  0.30472107  0.13249876  0.66809209     0.03000
H175        H  0.34963470  0.10061813  0.70432704     0.08100
H176        H  0.29027712  0.13765124  0.64939485     0.07000
N177        N  0.63093046  0.16604871  0.78844265    -0.27400
N178        N  0.64324196  0.18413641  0.80474203    -0.35300
C179        C  0.63143548  0.18991600  0.83519748     0.00900
C180        C  0.61081531  0.17456685  0.83856028     0.06900
C181        C  0.61093734  0.15978794  0.80825140    -0.06200
H182        H  0.63728071  0.20445480  0.85338977     0.07600
H183        H  0.59706834  0.14619182  0.80038749     0.08800
Cu184      Cu  0.67489323  0.20107393  0.78452463     0.44200
Cu185      Cu  0.64165673  0.15139719  0.73950361     0.42000
Cu186      Cu  0.69749265  0.17908858  0.69993892     0.43900
N187        N  0.70526617  0.21662005  0.75881812    -0.34800
N188        N  0.71363238  0.20873487  0.72767767    -0.29100
C189        C  0.73316327  0.22304147  0.71798064    -0.05200
C190        C  0.73717379  0.24075367  0.74429984     0.07000
C191        C  0.71915057  0.23609444  0.76976553     0.00800
H192        H  0.74351757  0.22083396  0.69345891     0.08500
H193        H  0.71616566  0.24621628  0.79432410     0.07600
N194        N  0.67802421  0.14904795  0.67801178    -0.36300
N195        N  0.65757720  0.13927020  0.69205170    -0.28400
C196        C  0.65034174  0.11962825  0.67217302    -0.03700
C197        C  0.66696591  0.11691573  0.64420169     0.04900
C198        C  0.68437440  0.13575124  0.64897684     0.03000
H199        H  0.63493956  0.10742953  0.67880215     0.08100
H200        H  0.70084962  0.13912367  0.63300775     0.07000
N201        N  0.63470760  0.17006670  0.20616559    -0.27400
N202        N  0.64449957  0.19103637  0.19406883    -0.35300
C203        C  0.63053956  0.19956829  0.16706790     0.00900
C204        C  0.61084547  0.18330016  0.16197864     0.06900
C205        C  0.61419952  0.16464836  0.18697758    -0.06200
H206        H  0.63523463  0.21569730  0.15119417     0.07600
H207        H  0.60288314  0.14809448  0.19041056     0.08800
Cu208      Cu  0.67735671  0.20638215  0.21252228     0.44200
Cu209      Cu  0.65070108  0.14941980  0.24690723     0.42000
Cu210      Cu  0.70964473  0.17416440  0.28194047     0.43900
N211        N  0.71075540  0.21866868  0.23351777    -0.34800
N212        N  0.72276160  0.20696507  0.25922197    -0.29100
C213        C  0.74363172  0.21983799  0.26716239    -0.05200
C214        C  0.74472238  0.24057296  0.24528326     0.07000
C215        C  0.72359533  0.23920939  0.22429593     0.00800
H216        H  0.75692240  0.21454405  0.28743593     0.08500
H217        H  0.71782490  0.25225392  0.20399610     0.07600
N218        N  0.69232074  0.14195863  0.30027685    -0.36300
N219        N  0.67095753  0.13311429  0.28782484    -0.28400
C220        C  0.66452852  0.11278960  0.30664670    -0.03700
C221        C  0.68283259  0.10844564  0.33183428     0.04900
C222        C  0.70005088  0.12742472  0.32722094     0.03000
H223        H  0.64755547  0.10217529  0.30268669     0.08100
H224        H  0.71641093  0.13113530  0.34322452     0.07000
N225        N  0.36945757  0.16812404  0.21084006    -0.27400
N226        N  0.36022654  0.18899583  0.19759280    -0.35300
C227        C  0.37430240  0.19616241  0.16980150     0.00900
C228        C  0.39315655  0.17883379  0.16495583     0.06900
C229        C  0.38967095  0.16145639  0.19176497    -0.06200
H230        H  0.37074372  0.21251627  0.15377698     0.07600
H231        H  0.40107800  0.14532843  0.19744407     0.08800
Cu232      Cu  0.32838100  0.20634530  0.21685755     0.44200
Cu233      Cu  0.35372046  0.14931951  0.25368329     0.42000
Cu234      Cu  0.29562328  0.17452559  0.28775481     0.43900
N235        N  0.29569097  0.21945017  0.23973171    -0.34800
N236        N  0.28373812  0.20778660  0.26560133    -0.29100
C237        C  0.26346929  0.22112825  0.27477080    -0.05200
C238        C  0.26259800  0.24213267  0.25355159     0.07000
C239        C  0.28326925  0.24048074  0.23160465     0.00800
H240        H  0.25034076  0.21585316  0.29530888     0.08500
H241        H  0.28894221  0.25359285  0.21131430     0.07600
N242        N  0.31280467  0.14311801  0.30830715    -0.36300
N243        N  0.33422332  0.13413295  0.29631863    -0.28400
C244        C  0.34095994  0.11458939  0.31653683    -0.03700
C245        C  0.32300264  0.11126744  0.34263163     0.04900
C246        C  0.30529144  0.12948494  0.33633062     0.03000
H247        H  0.35762289  0.10357673  0.31233294     0.08100
H248        H  0.28851213  0.13299870  0.35159632     0.07000
O249        O  0.02803588  0.65539000  0.54342417    -0.73100
O250        O  0.97825196  0.65758102  0.46384607    -0.74100
O251        O  0.03108232  0.65537532  0.46814485    -0.62700
O252        O  0.97514443  0.65757847  0.53915794    -0.71100
O253        O  0.97694530  0.69879476  0.54013315    -0.70600
O254        O  0.03211021  0.69665167  0.46761254    -0.61900
O255        O  0.97922402  0.69878067  0.46453015    -0.74400
O256        O  0.03019990  0.69677635  0.54259913    -0.73200
Cu257      Cu  0.00305581  0.65505631  0.50367056     1.04600
Cu258      Cu  0.00466296  0.69918860  0.50378299     1.04300
C259        C  0.03726546  0.67579934  0.55505745     0.93100
C260        C  0.97074157  0.67842738  0.45146044     0.92300
C261        C  0.04037868  0.67572242  0.45638433     0.84400
C262        C  0.96708684  0.67846834  0.55098748     0.90700
O263        O  0.97200972  0.34125223  0.53509282    -0.73100
O264        O  0.02835925  0.33973746  0.46489181    -0.74100
O265        O  0.97567845  0.34207136  0.46002130    -0.62700
O266        O  0.02485359  0.33887739  0.54045053    -0.71100
O267        O  0.02299774  0.29773550  0.53967438    -0.70600
O268        O  0.97422451  0.30080406  0.45858736    -0.61900
O269        O  0.02688079  0.29853838  0.46410314    -0.74400
O270        O  0.97008259  0.30009310  0.53372731    -0.73200
Cu271      Cu  0.00034245  0.34189716  0.50020287     1.04600
Cu272      Cu  0.99853165  0.29786684  0.49902660     1.04300
C273        C  0.96185249  0.32091884  0.54538885     0.93100
C274        C  0.03630687  0.31890326  0.45274583     0.92300
C275        C  0.96717174  0.32189412  0.44647426     0.84400
C276        C  0.03170486  0.31783618  0.55312185     0.90700
O277        O  0.15384723  0.47378545  0.04331672    -0.73100
O278        O  0.15301380  0.52714467  0.96889086    -0.74100
O279        O  0.15293518  0.47406715  0.96785320    -0.62700
O280        O  0.15419529  0.52652715  0.04430357    -0.71100
O281        O  0.19544333  0.52587874  0.04314973    -0.70600
O282        O  0.19425913  0.47422520  0.96639607    -0.61900
O283        O  0.19426462  0.52705407  0.96792210    -0.74400
O284        O  0.19534249  0.47312766  0.04142202    -0.73200
Cu285      Cu  0.15204115  0.50038739  0.00609016     1.04600
Cu286      Cu  0.19624321  0.50009348  0.00465160     1.04300
C287        C  0.17471303  0.46509273  0.05399766     0.93100
C288        C  0.17350687  0.53575407  0.95662590     0.92300
C289        C  0.17346359  0.46578679  0.95499611     0.84400
C290        C  0.17510273  0.53442162  0.05616570     0.90700
N291        N  0.16827189  0.63538607  0.80131676    -0.27400
N292        N  0.18624306  0.64764130  0.81783915    -0.35300
C293        C  0.19223491  0.63545555  0.84781552     0.00900
C294        C  0.17760886  0.61414204  0.85003161     0.06900
C295        C  0.16246612  0.61493121  0.82016687    -0.06200
H296        H  0.20567715  0.64226673  0.86685162     0.07600
H297        H  0.14820371  0.60161462  0.81267860     0.08800
Cu298      Cu  0.20183973  0.68024017  0.79866151     0.44200
Cu299      Cu  0.15161691  0.64795803  0.75517037     0.42000
Cu300      Cu  0.17261107  0.70786026  0.72126265     0.43900
N301        N  0.21512610  0.71185744  0.77355441    -0.34800
N302        N  0.20459623  0.72198954  0.74526367    -0.29100
C303        C  0.21788245  0.74219890  0.73563332    -0.05200
C304        C  0.23759997  0.74489415  0.75912169     0.07000
C305        C  0.23529198  0.72534126  0.78275940     0.00800
H306        H  0.21334911  0.75415587  0.71342389     0.08500
H307        H  0.24730136  0.72121730  0.80510467     0.07600
N308        N  0.14224723  0.68828315  0.70104957    -0.36300
N309        N  0.13518218  0.66617725  0.71285993    -0.28400
C310        C  0.11587330  0.65794002  0.69329765    -0.03700
C311        C  0.11012471  0.67588382  0.66817572     0.04900
C312        C  0.12743242  0.69476372  0.67373339     0.03000
H313        H  0.10748792  0.63976956  0.69649532     0.08100
H314        H  0.12929896  0.71186313  0.65872728     0.07000
N315        N  0.15862307  0.36255682  0.80427087    -0.27400
N316        N  0.18146588  0.35619599  0.81400649    -0.35300
C317        C  0.18868937  0.37089561  0.84112189     0.00900
C318        C  0.16937282  0.38711038  0.84912560     0.06900
C319        C  0.15070383  0.38147257  0.82494916    -0.06200
H320        H  0.20669318  0.36985648  0.85408542     0.07600
H321        H  0.13302721  0.39091431  0.82164760     0.08800
Cu322      Cu  0.20178802  0.32778203  0.79028356     0.44200
Cu323      Cu  0.13954860  0.34592489  0.76251009     0.42000
Cu324      Cu  0.17189574  0.29624667  0.71638611     0.43900
N325        N  0.21692186  0.29702070  0.76469349    -0.34800
N326        N  0.20596498  0.28545503  0.73780194    -0.29100
C327        C  0.21988755  0.26563779  0.72833587    -0.05200
C328        C  0.24052426  0.26464585  0.75041486     0.07000
C329        C  0.23807290  0.28484278  0.77310800     0.00800
H330        H  0.21499937  0.25259468  0.70747716     0.08500
H331        H  0.25042086  0.29001932  0.79465634     0.07600
N332        N  0.13760541  0.31039678  0.70032604    -0.36300
N333        N  0.12566710  0.32832761  0.71750690    -0.28400
C334        C  0.10454915  0.33386477  0.69988135    -0.03700
C335        C  0.10327339  0.31898199  0.66974372     0.04900
C336        C  0.12440434  0.30410245  0.67122645     0.03000
H337        H  0.09121594  0.34770519  0.70860886     0.08100
H338        H  0.13015926  0.29024272  0.65192705     0.07000
N339        N  0.16459072  0.36326520  0.20421426    -0.27400
N340        N  0.18615026  0.35477122  0.19202174    -0.35300
C341        C  0.19317470  0.36852755  0.16391730     0.00900
C342        C  0.17506115  0.38640804  0.15789346     0.06900
C343        C  0.15735394  0.38271377  0.18418065    -0.06200
H344        H  0.21058139  0.36609894  0.14973675     0.07600
H345        H  0.14049011  0.39342502  0.18849225     0.08800
Cu346      Cu  0.20551745  0.32519676  0.21409138     0.44200
Cu347      Cu  0.14644718  0.34863319  0.24819909     0.42000
Cu348      Cu  0.17788046  0.29718747  0.29160892     0.43900
N349        N  0.22057722  0.29455628  0.23971164    -0.34800
N350        N  0.21028630  0.28420254  0.26802441    -0.29100
C351        C  0.22379753  0.26417899  0.27752871    -0.05200
C352        C  0.24354705  0.26185111  0.25405683     0.07000
C353        C  0.24099698  0.28144048  0.23046786     0.00800
H354        H  0.21935146  0.25206834  0.29962066     0.08500
H355        H  0.25276770  0.28558158  0.20783838     0.07600
N356        N  0.14514518  0.31307199  0.31010790    -0.36300
N357        N  0.13364054  0.33186461  0.29436914    -0.28400
C358        C  0.11328031  0.33800808  0.31343966    -0.03700
C359        C  0.11205817  0.32239320  0.34262808     0.04900
C360        C  0.13237224  0.30666745  0.33947874     0.03000
H361        H  0.10023480  0.35255569  0.30629381     0.08100
H362        H  0.13765587  0.29184980  0.35745565     0.07000
N363        N  0.17563531  0.62990911  0.21753046    -0.27400
N364        N  0.19178183  0.64302265  0.19864399    -0.35300
C365        C  0.19680871  0.63072116  0.16830418     0.00900
C366        C  0.18339382  0.60863271  0.16826031     0.06900
C367        C  0.16998264  0.60888476  0.19972956    -0.06200
H368        H  0.20848382  0.63798340  0.14728535     0.07600
H369        H  0.15676210  0.59499483  0.20876120     0.08800
Cu370      Cu  0.20557908  0.67748255  0.21402549     0.44200
Cu371      Cu  0.16055904  0.64200417  0.26519318     0.42000
Cu372      Cu  0.17863586  0.70418981  0.29327106     0.43900
N373        N  0.21706182  0.71113241  0.23567407    -0.34800
N374        N  0.20708170  0.72100823  0.26462040    -0.29100
C375        C  0.21932233  0.74218452  0.27272144    -0.05200
C376        C  0.23794440  0.74572233  0.24771571     0.07000
C377        C  0.23594266  0.72573234  0.22457195     0.00800
H378        H  0.21537687  0.75373601  0.29567187     0.08500
H379        H  0.24772233  0.72170829  0.20188590     0.07600
N380        N  0.15195704  0.68275975  0.31896899    -0.36300
N381        N  0.14564031  0.65993348  0.30909375    -0.28400
C382        C  0.12715124  0.65168152  0.33024905    -0.03700
C383        C  0.12170107  0.67014531  0.35485065     0.04900
C384        C  0.13765621  0.68963712  0.34667455     0.03000
H385        H  0.11746565  0.63418023  0.32646350     0.08100
H386        H  0.13835107  0.70776599  0.35935244     0.07000
O387        O  0.80437315  0.52863229  0.95837095    -0.73100
O388        O  0.80509788  0.47718396  0.03554994    -0.74100
O389        O  0.80670237  0.52982018  0.03410832    -0.62700
O390        O  0.80340637  0.47549973  0.95984217    -0.71100
O391        O  0.84463671  0.47473908  0.95785521    -0.70600
O392        O  0.84791486  0.52869388  0.03148583    -0.61900
O393        O  0.84630390  0.47607667  0.03366233    -0.74400
O394        O  0.84558322  0.52788900  0.95570530    -0.73200
Cu395      Cu  0.80347848  0.50283679  0.99695025     1.04600
Cu396      Cu  0.84752136  0.50182759  0.99450991     1.04300
C397        C  0.82473498  0.53657943  0.94469395     0.93100
C398        C  0.82575179  0.46865960  0.04741509     0.92300
C399        C  0.82797441  0.53753131  0.04512896     0.84400
C400        C  0.82359313  0.46638105  0.94708831     0.90700
N401        N  0.83323027  0.36491000  0.79258329    -0.27400
N402        N  0.81342903  0.35476737  0.80788154    -0.35300
C403        C  0.80792814  0.36783134  0.83750924     0.00900
C404        C  0.82526295  0.38688108  0.84128746     0.06900
C405        C  0.84086668  0.38455399  0.81208852    -0.06200
H406        H  0.79227090  0.36394733  0.85484823     0.07600
H407        H  0.85597408  0.39685033  0.80456332     0.08800
Cu408      Cu  0.79430297  0.32404557  0.78712052     0.44200
Cu409      Cu  0.84839361  0.35271686  0.74480749     0.42000
Cu410      Cu  0.81776891  0.30055522  0.70295744     0.43900
N411        N  0.77916184  0.29333281  0.76046601    -0.34800
N412        N  0.78787055  0.28494324  0.72976234    -0.29100
C413        C  0.77436295  0.26505291  0.71944208    -0.05200
C414        C  0.75623120  0.26062027  0.74481195     0.07000
C415        C  0.75979223  0.27889356  0.77048137     0.00800
H416        H  0.77756344  0.25460795  0.69521522     0.08500
H417        H  0.74910033  0.28153262  0.79462170     0.07600
N418        N  0.84842009  0.31845587  0.68128121    -0.36300
N419        N  0.85972911  0.33756361  0.69661685    -0.28400
C420        C  0.87959275  0.34416136  0.67683546    -0.03700
C421        C  0.88069381  0.32858355  0.64741594     0.04900
C422        C  0.86076233  0.31236546  0.65135939     0.03000
H423        H  0.89292509  0.35833880  0.68445761     0.08100
H424        H  0.85594178  0.29687523  0.63418495     0.07000
N425        N  0.82575066  0.63154403  0.78245404    -0.27400
N426        N  0.80622128  0.64224948  0.79764011    -0.35300
C427        C  0.80032814  0.62965734  0.82740828     0.00900
C428        C  0.81680472  0.60987819  0.83102849     0.06900
C429        C  0.83280423  0.61184536  0.80218034    -0.06200
H430        H  0.78575387  0.63518810  0.84569414     0.07600
H431        H  0.84859410  0.59996151  0.79618534     0.08800
Cu432      Cu  0.78933343  0.67427530  0.77801831     0.44200
Cu433      Cu  0.84273048  0.64536373  0.73684788     0.42000
Cu434      Cu  0.81879777  0.70377424  0.70158837     0.43900
N435        N  0.77646850  0.70694691  0.75474931    -0.34800
N436        N  0.78724300  0.71781597  0.72715055    -0.29100
C437        C  0.77468557  0.73886531  0.71937102    -0.05200
C438        C  0.75508839  0.74132243  0.74317761     0.07000
C439        C  0.75676820  0.72074320  0.76516562     0.00800
H440        H  0.77956688  0.75149272  0.69806774     0.08500
H441        H  0.74474917  0.71623545  0.78738229     0.07600
N442        N  0.85016884  0.68558310  0.68147066    -0.36300
N443        N  0.85852109  0.66413278  0.69407297    -0.28400
C444        C  0.87903732  0.65737830  0.67578878    -0.03700
C445        C  0.88380714  0.67530501  0.65023534     0.04900
C446        C  0.86528239  0.69306291  0.65487325     0.03000
H447        H  0.89008957  0.64100303  0.68154757     0.08100
H448        H  0.86294874  0.71014033  0.63996015     0.07000
N449        N  0.84307919  0.63413375  0.20449953    -0.27400
N450        N  0.82219061  0.64364825  0.19166466    -0.35300
C451        C  0.81383909  0.62923073  0.16502169     0.00900
C452        C  0.82999869  0.60936879  0.16092632     0.06900
C453        C  0.84855997  0.61322284  0.18611613    -0.06200
H454        H  0.79791428  0.63378298  0.14863653     0.07600
H455        H  0.86504379  0.60193347  0.19027244     0.08800
Cu456      Cu  0.80630445  0.67660180  0.20839352     0.44200
Cu457      Cu  0.86323340  0.65114498  0.24532442     0.42000
Cu458      Cu  0.83682080  0.71007060  0.27796002     0.43900
N459        N  0.79339038  0.71023229  0.22744631    -0.34800
N460        N  0.80458474  0.72267298  0.25326554    -0.29100
C461        C  0.79144842  0.74348678  0.26024449    -0.05200
C462        C  0.77106453  0.74409683  0.23761898     0.07000
C463        C  0.77289756  0.72275275  0.21714034     0.00800
H464        H  0.79626305  0.75700413  0.28052028     0.08500
H465        H  0.76011570  0.71653367  0.19668588     0.07600
N466        N  0.86842357  0.69322335  0.29890182    -0.36300
N467        N  0.87810442  0.67207248  0.28705754    -0.28400
C468        C  0.89769988  0.66597955  0.30764439    -0.03700
C469        C  0.90063070  0.68418435  0.33357624     0.04900
C470        C  0.88153405  0.70103658  0.32732728     0.03000
H471        H  0.90864174  0.64914508  0.30455921     0.08100
H472        H  0.87648965  0.71702888  0.34330876     0.07000
N473        N  0.83097809  0.37284071  0.20850779    -0.27400
N474        N  0.81160630  0.36203660  0.19304901    -0.35300
C475        C  0.80468333  0.37576054  0.16480413     0.00900
C476        C  0.82030887  0.39633767  0.16252203     0.06900
C477        C  0.83689496  0.39368287  0.19049615    -0.06200
H478        H  0.79017745  0.37037893  0.14634095     0.07600
H479        H  0.85247477  0.40575842  0.19684884     0.08800
Cu480      Cu  0.79641291  0.32831674  0.20985480     0.44200
Cu481      Cu  0.84953344  0.35795335  0.25197895     0.42000
Cu482      Cu  0.82831965  0.29769759  0.28291515     0.43900
N483        N  0.78496012  0.29463176  0.23192898    -0.34800
N484        N  0.79670086  0.28346832  0.25841710    -0.29100
C485        C  0.78439371  0.26242791  0.26695416    -0.05200
C486        C  0.76390221  0.26025322  0.24483400     0.07000
C487        C  0.76483436  0.28095974  0.22293310     0.00800
H488        H  0.78979546  0.24987073  0.28806887     0.08500
H489        H  0.75171808  0.28590829  0.20225484     0.07600
N490        N  0.85848482  0.31657897  0.30463634    -0.36300
N491        N  0.86596379  0.33879719  0.29373465    -0.28400
C492        C  0.88560949  0.34608943  0.31346873    -0.03700
C493        C  0.89064994  0.32760805  0.33806190     0.04900
C494        C  0.87325227  0.30908237  0.33147777     0.03000
H495        H  0.89576486  0.36331491  0.30958596     0.08100
H496        H  0.87133580  0.29153770  0.34538987     0.07000
C497        C  0.80027384  0.56023858  0.89961039    -0.20400
C498        C  0.82358568  0.55569382  0.91572319    -0.07000
C499        C  0.84461888  0.56955511  0.90380006     0.13900
C500        C  0.84169231  0.58703154  0.87620961    -0.20500
C501        C  0.81836360  0.59151784  0.86048806    -0.07000
C502        C  0.79737341  0.57787735  0.87235832     0.13800
C503        C  0.77201282  0.58096712  0.85551428    -0.23800
H504        H  0.78405008  0.54974225  0.90815352     0.15100
H505        H  0.85775303  0.59754005  0.86703674     0.15200
C506        C  0.87015636  0.56658796  0.92011447    -0.23800
H507        H  0.75827967  0.56733982  0.86613545     0.05400
H508        H  0.77338048  0.57801657  0.82634304     0.08600
H509        H  0.76456822  0.59984713  0.86110863     0.08600
H510        H  0.87719128  0.54738778  0.91542025     0.08600
H511        H  0.86923250  0.57049900  0.94909995     0.08600
H512        H  0.88395208  0.57968268  0.90835008     0.05400
C513        C  0.84552842  0.43291376  0.91315205    -0.20400
C514        C  0.82312138  0.44586541  0.92001144    -0.07000
C515        C  0.80137048  0.43890650  0.90073625     0.13900
C516        C  0.80277011  0.41949821  0.87555160    -0.20500
C517        C  0.82523721  0.40697888  0.86852451    -0.07000
C518        C  0.84688331  0.41366612  0.88779812     0.13800
C519        C  0.87126260  0.39999641  0.88289072    -0.23800
H520        H  0.86223272  0.43774074  0.92789640     0.15100
H521        H  0.78620700  0.41427137  0.86072783     0.15200
C522        C  0.77665287  0.45192753  0.90571217    -0.23800
H523        H  0.88567143  0.40645877  0.90205815     0.05400
H524        H  0.87872900  0.40324672  0.85581928     0.08600
H525        H  0.86840073  0.37969832  0.88710828     0.08600
H526        H  0.77876557  0.47216524  0.90020775     0.08600
H527        H  0.76976423  0.44906893  0.93324608     0.08600
H528        H  0.76213679  0.44455296  0.88739291     0.05400
C529        C  0.80766136  0.56013837  0.09518621    -0.20400
C530        C  0.82929861  0.55611592  0.07469493    -0.07000
C531        C  0.85148225  0.56926064  0.08386507     0.13900
C532        C  0.85111163  0.58610726  0.11254615    -0.20500
C533        C  0.82934326  0.59035092  0.13233459    -0.07000
C534        C  0.80741463  0.57688154  0.12391874     0.13800
C535        C  0.78397774  0.57911884  0.14600149    -0.23800
H536        H  0.79077467  0.54984237  0.08905343     0.15100
H537        H  0.86788684  0.59644221  0.11921765     0.15200
C538        C  0.87561319  0.56620323  0.06357369    -0.23800
H539        H  0.76951830  0.56546471  0.13757441     0.05400
H540        H  0.77571544  0.59793374  0.14317597     0.08600
H541        H  0.78835102  0.57550634  0.17438314     0.08600
H542        H  0.87262382  0.57064506  0.03506645     0.08600
H543        H  0.88265142  0.54683954  0.06643408     0.08600
H544        H  0.89045670  0.57885692  0.07366351     0.05400
C545        C  0.84458938  0.42073202  0.11839082    -0.20400
C546        C  0.82136847  0.41531004  0.13386228    -0.07000
C547        C  0.79997156  0.42825368  0.12204223     0.13900
C548        C  0.80221070  0.44542080  0.09405667    -0.20500
C549        C  0.82532887  0.45038496  0.07750103    -0.07000
C550        C  0.84695243  0.43801101  0.09048273     0.13800
C551        C  0.87263193  0.44251503  0.07529157    -0.23800
H552        H  0.86102676  0.41101369  0.12789090     0.15100
H553        H  0.78559958  0.45512170  0.08521037     0.15200
C554        C  0.77489661  0.42494201  0.13973108    -0.23800
H555        H  0.88707198  0.43096822  0.08860758     0.05400
H556        H  0.87798864  0.46235639  0.07907632     0.08600
H557        H  0.87288262  0.43762438  0.04659053     0.08600
H558        H  0.77660961  0.42846545  0.16873771     0.08600
H559        H  0.76774171  0.40582200  0.13513211     0.08600
H560        H  0.76076820  0.43810248  0.12903276     0.05400
C561        C  0.19686998  0.56644339  0.91998712    -0.20400
C562        C  0.17366657  0.55604581  0.92947943    -0.07000
C563        C  0.15176780  0.56524224  0.91268963     0.13900
C564        C  0.15385018  0.58448653  0.88756748    -0.20500
C565        C  0.17704940  0.59486643  0.87835604    -0.07000
C566        C  0.19891893  0.58553163  0.89471491     0.13800
C567        C  0.22468390  0.59459856  0.88490722    -0.23800
H568        H  0.21377075  0.55957781  0.93239698     0.15100
H569        H  0.13709476  0.59153677  0.87494660     0.15200
C570        C  0.12609779  0.55490674  0.92029013    -0.23800
H571        H  0.23951548  0.58285551  0.89694367     0.05400
H572        H  0.22759111  0.61379144  0.89501937     0.08600
H573        H  0.22724023  0.59394641  0.85561828     0.08600
H574        H  0.12114481  0.55812336  0.94859752     0.08600
H575        H  0.12561521  0.53464864  0.91407754     0.08600
H576        H  0.11147685  0.56402893  0.90390265     0.05400
C577        C  0.15195676  0.43017803  0.92584033    -0.20400
C578        C  0.17295258  0.44591529  0.92734829    -0.07000
C579        C  0.19273651  0.44207723  0.90277340     0.13900
C580        C  0.19081182  0.42281351  0.87757023    -0.20500
C581        C  0.16975259  0.40729908  0.87602592    -0.07000
C582        C  0.15016077  0.41084867  0.90073195     0.13800
C583        C  0.12786535  0.39367832  0.90199921    -0.23800
H584        H  0.13695935  0.43271590  0.94488683     0.15100
H585        H  0.20583625  0.41991957  0.85865493     0.15200
C586        C  0.21573171  0.45835435  0.90212760    -0.23800
H587        H  0.11546869  0.39799507  0.92490219     0.05400
H588        H  0.13419043  0.37404899  0.90473053     0.08600
H589        H  0.11655007  0.39568951  0.87753925     0.08600
H590        H  0.22653735  0.45592558  0.92704472     0.08600
H591        H  0.21026255  0.47820772  0.89895528     0.08600
H592        H  0.22836446  0.45346444  0.87972256     0.05400
C593        C  0.15795567  0.58118733  0.12958006    -0.20400
C594        C  0.18167618  0.58982013  0.13951840    -0.07000
C595        C  0.20304339  0.57980947  0.12272954     0.13900
C596        C  0.20005345  0.56197194  0.09576552    -0.20500
C597        C  0.17629355  0.55350014  0.08509928    -0.07000
C598        C  0.15487142  0.56321906  0.10268273     0.13800
C599        C  0.12867089  0.55490551  0.09386994    -0.23800
H600        H  0.14163725  0.58876664  0.14284000     0.15100
H601        H  0.21662788  0.55453812  0.08304531     0.15200
C602        C  0.22913168  0.58686602  0.13407144    -0.23800
H603        H  0.11450889  0.56437928  0.11076169     0.05400
H604        H  0.12677991  0.53453102  0.09843184     0.08600
H605        H  0.12427175  0.55945938  0.06578513     0.08600
H606        H  0.23130624  0.58395299  0.16312795     0.08600
H607        H  0.23301501  0.60659263  0.12738557     0.08600
H608        H  0.24349507  0.57538772  0.12035912     0.05400
C609        C  0.17914057  0.42078287  0.06976563    -0.20400
C610        C  0.17496032  0.44535137  0.08087210    -0.07000
C611        C  0.17071244  0.45062672  0.11709404     0.13900
C612        C  0.17080836  0.43097382  0.14168178    -0.20500
C613        C  0.17522497  0.40628587  0.13073719    -0.07000
C614        C  0.17914934  0.40107278  0.09423022     0.13800
C615        C  0.18214746  0.37477498  0.08058783    -0.23800
H616        H  0.18206563  0.41700513  0.04172430     0.15100
H617        H  0.16769913  0.43491057  0.16962587     0.15200
C618        C  0.16644512  0.47699594  0.12972109    -0.23800
H619        H  0.18294286  0.37415113  0.05107936     0.05400
H620        H  0.16604380  0.36321682  0.08925340     0.08600
H621        H  0.19974961  0.36654905  0.09060569     0.08600
H622        H  0.14954011  0.48480177  0.11678824     0.08600
H623        H  0.18283543  0.48874079  0.12280013     0.08600
H624        H  0.16371031  0.47789405  0.15897781     0.05400
C625        C  0.05881526  0.34014951  0.59662641    -0.20400
C626        C  0.04978076  0.31722454  0.58351069    -0.07000
C627        C  0.05839011  0.29484870  0.59967872     0.13900
C628        C  0.07549188  0.29622686  0.62801581    -0.20500
C629        C  0.08423512  0.31916479  0.64103291    -0.07000
C630        C  0.07588161  0.34144751  0.62488579     0.13800
C631        C  0.08566813  0.36669558  0.63591109    -0.23800
H632        H  0.05264777  0.35740116  0.58453007     0.15100
H633        H  0.08212866  0.27917389  0.64023730     0.15200
C634        C  0.05000366  0.26934949  0.58754163    -0.23800
H635        H  0.07907659  0.38169251  0.61787832     0.05400
H636        H  0.10640493  0.36673498  0.63523367     0.08600
H637        H  0.07896420  0.37147688  0.66293521     0.08600
H638        H  0.05540860  0.26634648  0.55934753     0.08600
H639        H  0.02945637  0.26756237  0.59065709     0.08600
H640        H  0.05874535  0.25422078  0.60337319     0.05400
C641        C  0.92944081  0.34533672  0.57771273    -0.20400
C642        C  0.94039976  0.32193300  0.57076277    -0.07000
C643        C  0.93059302  0.30057835  0.58826521     0.13900
C644        C  0.91096855  0.30349254  0.61274014    -0.20500
C645        C  0.90077996  0.32698691  0.62040880    -0.07000
C646        C  0.90975345  0.34812495  0.60205594     0.13800
C647        C  0.89805698  0.37350612  0.60679493    -0.23800
H648        H  0.93624469  0.36172038  0.56392720     0.15100
H649        H  0.90378287  0.28728063  0.62658217     0.15200
C650        C  0.94064020  0.27464125  0.58205343    -0.23800
H651        H  0.90605844  0.38739092  0.58808509     0.05400
H652        H  0.90139810  0.38057275  0.63406561     0.08600
H653        H  0.87765791  0.37236405  0.60171289     0.08600
H654        H  0.96077632  0.27394658  0.58902616     0.08600
H655        H  0.93790217  0.26919127  0.55382692     0.08600
H656        H  0.93089084  0.26052466  0.59861690     0.05400
C657        C  0.06938989  0.34112520  0.41879370    -0.20400
C658        C  0.05625532  0.31877750  0.42502613    -0.07000
C659        C  0.06190457  0.29755004  0.40372667     0.13900
C660        C  0.08032342  0.29941088  0.37724741    -0.20500
C661        C  0.09289057  0.32186399  0.37083292    -0.07000
C662        C  0.08752402  0.34295360  0.39198304     0.13800
C663        C  0.10141860  0.36719290  0.38722267    -0.23800
H664        H  0.06546564  0.35741341  0.43497837     0.15100
H665        H  0.08471212  0.28328878  0.36092574     0.15200
C666        C  0.04845217  0.27298218  0.40776763    -0.23800
H667        H  0.09581210  0.38130267  0.40738040     0.05400
H668        H  0.09742298  0.37513280  0.36064453     0.08600
H669        H  0.12181268  0.36395950  0.38995656     0.08600
H670        H  0.02809333  0.27566794  0.40371351     0.08600
H671        H  0.05203598  0.26511804  0.43455490     0.08600
H672        H  0.05487617  0.25896627  0.38796924     0.05400
C673        C  0.93239881  0.34396296  0.41643502    -0.20400
C674        C  0.94844090  0.32321735  0.41740489    -0.07000
C675        C  0.94591842  0.30440490  0.39105777     0.13900
C676        C  0.92694478  0.30650191  0.36544932    -0.20500
C677        C  0.91078490  0.32706804  0.36493172    -0.07000
C678        C  0.91360741  0.34611735  0.39063095     0.13800
C679        C  0.89619362  0.36819037  0.39204383    -0.23800
H680        H  0.93418856  0.35838240  0.43653480     0.15100
H681        H  0.92477594  0.29204770  0.34546414     0.15200
C682        C  0.96350100  0.28248079  0.38888342    -0.23800
H683        H  0.90018910  0.38045613  0.41520288     0.05400
H684        H  0.87657950  0.36163693  0.39434403     0.08600
H685        H  0.89830870  0.37963398  0.36772270     0.08600
H686        H  0.96123869  0.27037932  0.41255224     0.08600
H687        H  0.98307274  0.28924460  0.38714156     0.08600
H688        H  0.95980252  0.27075937  0.36506000     0.05400
C689        C  0.04950546  0.66579427  0.61663247    -0.20400
C690        C  0.05621978  0.67517638  0.58328549    -0.07000
C691        C  0.08066584  0.68410789  0.57756139     0.13900
C692        C  0.09783215  0.68376845  0.60570627    -0.20500
C693        C  0.09116938  0.67466714  0.63943898    -0.07000
C694        C  0.06655347  0.66562288  0.64498964     0.13800
C695        C  0.05752524  0.65694942  0.68087120    -0.23800
H696        H  0.03060364  0.65907874  0.62067235     0.15100
H697        H  0.11665507  0.69053880  0.60125279     0.15200
C698        C  0.08881644  0.69343702  0.54157772    -0.23800
H699        H  0.03705879  0.65350797  0.68095629     0.05400
H700        H  0.06151446  0.67137370  0.70133349     0.08600
H701        H  0.06659173  0.63911257  0.68805970     0.08600
H702        H  0.07753166  0.70992675  0.53391001     0.08600
H703        H  0.08628907  0.67848581  0.52139186     0.08600
H704        H  0.10879153  0.69905823  0.54148707     0.05400
C705        C  0.08559108  0.69203764  0.38134634    -0.20400
C706        C  0.10087194  0.67081353  0.38071052    -0.07000
C707        C  0.09630200  0.65129556  0.40505973     0.13900
C708        C  0.07644054  0.65352685  0.42927579    -0.20500
C709        C  0.06105285  0.67479333  0.42999616    -0.07000
C710        C  0.06570371  0.69430761  0.40544376     0.13800
C711        C  0.04955437  0.71731853  0.40353536    -0.23800
H712        H  0.08911257  0.70690752  0.36249530     0.15100
H713        H  0.07313364  0.63863030  0.44814959     0.15200
C714        C  0.11283315  0.62856820  0.40675620    -0.23800
H715        H  0.05508699  0.72968478  0.38120673     0.05400
H716        H  0.05138346  0.72835332  0.42839621     0.08600
H717        H  0.02974732  0.71188551  0.39936209     0.08600
H718        H  0.13257828  0.63433521  0.41054819     0.08600
H719        H  0.11108381  0.61749135  0.38198264     0.08600
H720        H  0.10762717  0.61616386  0.42919757     0.05400
C721        C  0.93050816  0.65732893  0.57826127    -0.20400
C722        C  0.94580948  0.67865458  0.57669672    -0.07000
C723        C  0.94025634  0.69910559  0.59947519     0.13900
C724        C  0.91978880  0.69748993  0.62291309    -0.20500
C725        C  0.90488142  0.67598996  0.62462729    -0.07000
C726        C  0.91017740  0.65574921  0.60171661     0.08200
C727        C  0.89387922  0.63280421  0.60068300    -0.23800
H728        H  0.93426937  0.64174192  0.56064932     0.15100
H729        H  0.91557992  0.71300209  0.64047315     0.15200
C730        C  0.95595782  0.72246277  0.60011039    -0.23800
H731        H  0.89966225  0.61971048  0.57926986     0.05400
H732        H  0.87418722  0.63824205  0.59565237     0.08600
H733        H  0.89514156  0.62257656  0.62617330     0.08600
H734        H  0.95473496  0.73214037  0.57411864     0.08600
H735        H  0.97569638  0.71764415  0.60600211     0.08600
H736        H  0.94953602  0.73581162  0.62082532     0.05400
C737        C  0.94856585  0.70226407  0.40422766    -0.20400
C738        C  0.95240242  0.67931091  0.42154896    -0.07000
C739        C  0.93877718  0.65811722  0.40963530     0.13900
C740        C  0.92204822  0.66058190  0.38112188    -0.20500
C741        C  0.91825195  0.68349301  0.36404795    -0.07000
C742        C  0.93178563  0.70464831  0.37572307     0.13800
C743        C  0.92957416  0.72956700  0.35747772    -0.23800
H744        H  0.95897924  0.71855174  0.41275526     0.15100
H745        H  0.91161589  0.64440329  0.37218722     0.15200
C746        C  0.94128378  0.63278568  0.42666779    -0.23800
H747        H  0.94329781  0.74326668  0.36800066     0.05400
H748        H  0.91076010  0.73755603  0.36191973     0.08600
H749        H  0.93309515  0.72738870  0.32853699     0.08600
H750        H  0.93660568  0.63402845  0.45538997     0.08600
H751        H  0.96058859  0.62565727  0.42310477     0.08600
H752        H  0.92847677  0.61885734  0.41453268     0.05400
C753        C  0.56525158  0.15700290  0.91211925    -0.20400
C754        C  0.55518318  0.18042839  0.92141839    -0.07000
C755        C  0.56413951  0.20195994  0.90339672     0.13900
C756        C  0.58221417  0.19924896  0.87654653    -0.20500
C757        C  0.59165792  0.17579713  0.86693784    -0.07000
C758        C  0.58337080  0.15442658  0.88535387     0.13800
C759        C  0.59429390  0.12899499  0.87809442    -0.23800
H760        H  0.55904958  0.14043177  0.92601421     0.15100
H761        H  0.58890800  0.21562362  0.86259000     0.15200
C762        C  0.55494474  0.22791961  0.91175216    -0.23800
H763        H  0.58698291  0.11475082  0.89682328     0.05400
H764        H  0.61491850  0.12965072  0.88109535     0.08600
H765        H  0.58945073  0.12277689  0.85085151     0.08600
H766        H  0.55938899  0.23276490  0.93975888     0.08600
H767        H  0.53449265  0.22907039  0.90717159     0.08600
H768        H  0.56395285  0.24220578  0.89464399     0.05400
C769        C  0.43054581  0.15921857  0.92281537    -0.20400
C770        C  0.44478861  0.18121118  0.92580352    -0.07000
C771        C  0.43890992  0.20165773  0.90336800     0.13900
C772        C  0.41912881  0.19944722  0.87899289    -0.20500
C773        C  0.40516434  0.17739743  0.87596187    -0.07000
C774        C  0.41084839  0.15705322  0.89837484     0.13800
C775        C  0.39561650  0.13338235  0.89789628    -0.23800
H776        H  0.43462611  0.14357889  0.94006951     0.15100
H777        H  0.41468003  0.21501440  0.86177045     0.15200
C778        C  0.45352967  0.22571216  0.90409446    -0.23800
H779        H  0.40143854  0.12031536  0.91921954     0.05400
H780        H  0.39806202  0.12351679  0.87222546     0.08600
H781        H  0.37556950  0.13783553  0.90204937     0.08600
H782        H  0.47360389  0.22186707  0.89901919     0.08600
H783        H  0.45120738  0.23506364  0.93024563     0.08600
H784        H  0.44702488  0.23898018  0.88343353     0.05400
C785        C  0.58961896  0.16224069  0.11197519    -0.20400
C786        C  0.59235061  0.18372537  0.13285837    -0.07000
C787        C  0.57748238  0.20487356  0.12561792     0.13900
C788        C  0.55993987  0.20378634  0.09793823    -0.20500
C789        C  0.55687246  0.18214811  0.07712907    -0.07000
C790        C  0.57235028  0.16118212  0.08397187     0.13800
C791        C  0.57146698  0.13779137  0.06160973    -0.23800
H792        H  0.60135530  0.14621687  0.11740956     0.15100
H793        H  0.54822728  0.21988905  0.09296943     0.15200
C794        C  0.57923613  0.22827051  0.14781742    -0.23800
H795        H  0.58619638  0.12427179  0.06937495     0.05400
H796        H  0.57446733  0.14254137  0.03319205     0.08600
H797        H  0.55322252  0.12826693  0.06502926     0.08600
H798        H  0.59783467  0.23703572  0.14448644     0.08600
H799        H  0.57614895  0.22371124  0.17626982     0.08600
H800        H  0.56503377  0.24229203  0.13988507     0.05400
C801        C  0.42499111  0.20177201  0.12996641    -0.20400
C802        C  0.41255187  0.17923840  0.13676588    -0.07000
C803        C  0.41782707  0.15821611  0.11529487     0.13900
C804        C  0.43572126  0.16018260  0.08815037    -0.20500
C805        C  0.44849962  0.18263910  0.08137993    -0.07000
C806        C  0.44290703  0.20382521  0.10274599     0.13800
C807        C  0.45575410  0.22861716  0.09771309    -0.23800
H808        H  0.42070146  0.21791561  0.14628626     0.15100
H809        H  0.43951950  0.14395304  0.07178737     0.15200
C810        C  0.40390759  0.13394075  0.11955250    -0.23800
H811        H  0.44956779  0.24261813  0.11768591     0.05400
H812        H  0.45129664  0.23624818  0.07105332     0.08600
H813        H  0.47626429  0.22633523  0.10064353     0.08600
H814        H  0.38347062  0.13729949  0.11803248     0.08600
H815        H  0.40864722  0.12521110  0.14533280     0.08600
H816        H  0.40887145  0.12032704  0.09838301     0.05400
C817        C  0.29766518  0.08262282  0.62654964    -0.20400
C818        C  0.32058411  0.09257098  0.63776580    -0.07000
C819        C  0.34278905  0.08452405  0.62093386     0.13900
C820        C  0.34150141  0.06631542  0.59410584    -0.20500
C821        C  0.31862635  0.05585158  0.58309205    -0.07000
C822        C  0.29628451  0.06439076  0.59963242     0.13800
C823        C  0.27083004  0.05462500  0.58952714    -0.23800
H824        H  0.28065236  0.08906181  0.63924989     0.15100
H825        H  0.35870325  0.06034291  0.58151235     0.15200
C826        C  0.36786009  0.09578202  0.62976124    -0.23800
H827        H  0.25573309  0.06343236  0.60548028     0.05400
H828        H  0.26989899  0.03420906  0.59426907     0.08600
H829        H  0.26697354  0.05877283  0.56114990     0.08600
H830        H  0.37353311  0.09056678  0.65704716     0.08600
H831        H  0.36696907  0.11640607  0.62734587     0.08600
H832        H  0.38272651  0.08901548  0.61151541     0.05400
C833        C  0.34100851  0.07152171  0.42221799    -0.20400
C834        C  0.31983186  0.05619198  0.42596722    -0.07000
C835        C  0.29953493  0.05942766  0.40208998     0.13900
C836        C  0.30118500  0.07763153  0.37533719    -0.20500
C837        C  0.32256932  0.09245651  0.37135512    -0.07000
C838        C  0.34261127  0.08960845  0.39539007     0.13800
C839        C  0.36532457  0.10621431  0.39386219    -0.23800
H840        H  0.35645701  0.06947976  0.44058672     0.15100
H841        H  0.28578725  0.08009660  0.35696682     0.15200
C842        C  0.27632966  0.04349601  0.40368308    -0.23800
H843        H  0.37833981  0.10252060  0.41622399     0.05400
H844        H  0.35954343  0.12608049  0.39544941     0.08600
H845        H  0.37575842  0.10293757  0.36883222     0.08600
H846        H  0.26632995  0.04677496  0.42912834     0.08600
H847        H  0.28143169  0.02348679  0.40116156     0.08600
H848        H  0.26311717  0.04794315  0.38183892     0.05400
C849        C  0.65082307  0.06992974  0.57149029    -0.20400
C850        C  0.67331365  0.05643165  0.56850351    -0.07000
C851        C  0.69353728  0.06298138  0.59115012     0.13900
C852        C  0.69076705  0.08284517  0.61529380    -0.20500
C853        C  0.66833429  0.09615748  0.61813338    -0.07000
C854        C  0.64807385  0.08962190  0.59595677     0.13800
C855        C  0.62384927  0.10392371  0.59697374    -0.23800
H856        H  0.63527807  0.06526545  0.55426947     0.15100
H857        H  0.70620173  0.08786982  0.63253785     0.15200
C858        C  0.71796779  0.04897665  0.59097858    -0.23800
H859        H  0.61052163  0.09718547  0.57645972     0.05400
H860        H  0.62748673  0.12401117  0.59198823     0.08600
H861        H  0.61474419  0.10168591  0.62325235     0.08600
H862        H  0.72752410  0.05141330  0.56502317     0.08600
H863        H  0.71454775  0.02886493  0.59611385     0.08600
H864        H  0.73091299  0.05588451  0.61187281     0.05400
C865        C  0.70053376  0.05523762  0.39371515    -0.20400
C866        C  0.67875654  0.05295613  0.41443219    -0.07000
C867        C  0.65854378  0.06948472  0.40803898     0.13900
C868        C  0.66054126  0.08724109  0.38080096    -0.20500
C869        C  0.68226651  0.08940137  0.36023335    -0.07000
C870        C  0.70256289  0.07322641  0.36677167     0.13800
C871        C  0.72602175  0.07415881  0.34461720    -0.23800
H872        H  0.71604398  0.04267376  0.39835067     0.15100
H873        H  0.64510917  0.09984365  0.37579586     0.15200
C874        C  0.63508371  0.06926976  0.43029414    -0.23800
H875        H  0.73930680  0.05912226  0.35197602     0.05400
H876        H  0.73572979  0.09220686  0.34863702     0.08600
H877        H  0.72127014  0.07183264  0.31606647     0.08600
H878        H  0.63991996  0.07169709  0.45881143     0.08600
H879        H  0.62485221  0.05147262  0.42635220     0.08600
H880        H  0.62216505  0.08461125  0.42288782     0.05400
C881        C  0.34295930  0.91270786  0.39429189    -0.20400
C882        C  0.32326201  0.91220885  0.36983206    -0.07000
C883        C  0.30423318  0.93034432  0.37199812     0.13900
C884        C  0.30493352  0.94811965  0.39943859    -0.20500
C885        C  0.32436060  0.94841937  0.42457317    -0.07000
C886        C  0.34375978  0.93049172  0.42176018     0.13800
C887        C  0.36483308  0.92922761  0.44823377    -0.23800
H888        H  0.35756132  0.89876387  0.39224062     0.15100
H889        H  0.29029711  0.96204782  0.40106071     0.15200
C890        C  0.28364906  0.93151685  0.34473992    -0.23800
H891        H  0.37735199  0.91309692  0.44306155     0.05400
H892        H  0.35710088  0.92712969  0.47543439     0.08600
H893        H  0.37639626  0.94637321  0.44668566     0.08600
H894        H  0.27225295  0.91425128  0.34570023     0.08600
H895        H  0.29184870  0.93359546  0.31776996     0.08600
H896        H  0.27097307  0.94758143  0.34951884     0.05400
C897        C  0.66231989  0.90997552  0.38178957    -0.20400
C898        C  0.68483200  0.90665793  0.36335664    -0.07000
C899        C  0.70568144  0.92154500  0.37254527     0.13900
C900        C  0.70327272  0.93957087  0.39957033    -0.20500
C901        C  0.68059319  0.94323522  0.41786390    -0.07000
C902        C  0.65989434  0.92780097  0.40902805     0.13800
C903        C  0.63522017  0.92944088  0.42828562    -0.23800
H904        H  0.64644881  0.89837670  0.37484542     0.15100
H905        H  0.71921692  0.95119625  0.40599202     0.15200
C906        C  0.73020229  0.91939955  0.35302529    -0.23800
H907        H  0.62189891  0.91487669  0.41916751     0.05400
H908        H  0.62634368  0.94779260  0.42323099     0.08600
H909        H  0.63813137  0.92676637  0.45726061     0.08600
H910        H  0.72716846  0.92180945  0.32403241     0.08600
H911        H  0.73881930  0.90097733  0.35817191     0.08600
H912        H  0.74376206  0.93383132  0.36184440     0.05400
C913        C  0.34232587  0.91395896  0.61590283    -0.20400
C914        C  0.32053210  0.91087531  0.63605179    -0.07000
C915        C  0.29958389  0.92605902  0.62903938     0.13900
C916        C  0.30090208  0.94382218  0.60176013    -0.20500
C917        C  0.32267676  0.94702159  0.58127323    -0.07000
C918        C  0.34371108  0.93168464  0.58847815     0.13800
C919        C  0.36752001  0.93328380  0.56716906    -0.23800
H920        H  0.35832180  0.90221326  0.62152139     0.15100
H921        H  0.28482204  0.95558508  0.59681247     0.15200
C922        C  0.27614745  0.92437641  0.65117093    -0.23800
H923        H  0.38126847  0.91887905  0.57533062     0.05400
H924        H  0.37645837  0.95175546  0.57117631     0.08600
H925        H  0.36340137  0.93033583  0.53857570     0.08600
H926        H  0.28075688  0.92730816  0.67966140     0.08600
H927        H  0.26727859  0.90584765  0.64766676     0.08600
H928        H  0.26220787  0.93869805  0.64338765     0.05400
C929        C  0.65677033  0.91479483  0.61026669    -0.20400
C930        C  0.67782335  0.91387171  0.63232815    -0.07000
C931        C  0.69789516  0.93037382  0.62617995     0.13900
C932        C  0.69660610  0.94710106  0.59761213    -0.20500
C933        C  0.67570752  0.94791367  0.57496566    -0.07000
C934        C  0.65543198  0.93144310  0.58152730     0.13800
C935        C  0.63260388  0.93061471  0.55807784    -0.23800
H936        H  0.64142828  0.90205377  0.61524582     0.15100
H937        H  0.71201840  0.95984947  0.59321770     0.15200
C938        C  0.72029778  0.93109098  0.65042266    -0.23800
H939        H  0.61947684  0.91560061  0.56616527     0.05400
H940        H  0.63821256  0.92696070  0.53011040     0.08600
H941        H  0.62230180  0.94853108  0.55988786     0.08600
H942        H  0.73053183  0.91314486  0.64907854     0.08600
H943        H  0.71415809  0.93459603  0.67820133     0.08600
H944        H  0.73356765  0.94611234  0.64285794     0.05400
C945        C  0.57541854  0.80612571  0.87176115    -0.20400
C946        C  0.58914608  0.82808059  0.86656563    -0.07000
C947        C  0.58453404  0.84892566  0.88867479     0.13900
C948        C  0.56619340  0.84726950  0.91525003    -0.20500
C949        C  0.55225189  0.82532439  0.92057824    -0.07000
C950        C  0.55694077  0.80442810  0.89819968     0.13800
C951        C  0.54248127  0.78036173  0.90121594    -0.23800
H952        H  0.57909596  0.79019429  0.85472383     0.15100
H953        H  0.56298140  0.86326986  0.93231633     0.15200
C954        C  0.59956162  0.87262140  0.88556398    -0.23800
H955        H  0.54794448  0.76672023  0.88033101     0.05400
H956        H  0.52219739  0.78407173  0.89813823     0.08600
H957        H  0.54617542  0.77148633  0.92731537     0.08600
H958        H  0.59576968  0.88179700  0.85977051     0.08600
H959        H  0.61979178  0.86835092  0.88780673     0.08600
H960        H  0.59474341  0.88620787  0.90683814     0.05400
C961        C  0.42038069  0.84175039  0.93917097    -0.20400
C962        C  0.44258721  0.83002395  0.92842816    -0.07000
C963        C  0.44455101  0.82025358  0.89362712     0.13900
C964        C  0.42415893  0.82238801  0.87034989    -0.20500
C965        C  0.40181560  0.83366342  0.88134101    -0.07000
C966        C  0.39982240  0.84341868  0.91609896     0.13800
C967        C  0.37611093  0.85572841  0.92865604    -0.23800
H968        H  0.41901373  0.84927038  0.96589523     0.15100
H969        H  0.42554952  0.81505752  0.84352656     0.15200
C970        C  0.46831276  0.80815991  0.88076879    -0.23800
H971        H  0.37775902  0.86253071  0.95648264     0.05400
H972        H  0.36044308  0.84217362  0.92747537     0.08600
H973        H  0.37174135  0.87191966  0.91138359     0.08600
H974        H  0.47238274  0.79134103  0.89690207     0.08600
H975        H  0.48408722  0.82152664  0.88315584     0.08600
H976        H  0.46690626  0.80227156  0.85250128     0.05400
C977        C  0.43414540  0.84909200  0.08763179    -0.20400
C978        C  0.44580878  0.82612675  0.08012576    -0.07000
C979        C  0.43773256  0.80450123  0.09868378     0.13900
C980        C  0.41838021  0.80656473  0.12373097    -0.20500
C981        C  0.40701346  0.82951930  0.13117709    -0.07000
C982        C  0.41488757  0.85106911  0.11278982     0.13800
C983        C  0.40240260  0.87599495  0.11833481    -0.23800
H984        H  0.43986291  0.86568672  0.07337518     0.15100
H985        H  0.41219288  0.79011722  0.13797903     0.15200
C986        C  0.44940228  0.77918998  0.09301446    -0.23800
H987        H  0.40973034  0.89034277  0.09977939     0.05400
H988        H  0.40581971  0.88284424  0.14571261     0.08600
H989        H  0.38199506  0.87422894  0.11370421     0.08600
H990        H  0.46979316  0.78016646  0.09824714     0.08600
H991        H  0.44593178  0.77268631  0.06541893     0.08600
H992        H  0.44141054  0.76493195  0.11115601     0.05400
C993        C  0.58167493  0.80197201  0.12211989    -0.20400
C994        C  0.59669370  0.82328585  0.12548564    -0.07000
C995        C  0.59208945  0.84401705  0.10336958     0.13900
C996        C  0.57234871  0.84306927  0.07885810    -0.20500
C997        C  0.55689139  0.82192778  0.07562386    -0.07000
C998        C  0.56170434  0.80102546  0.09778015     0.13800
C999        C  0.54563561  0.77792323  0.09691082    -0.23800
H1000       H  0.58535648  0.78610154  0.13916706     0.15100
H1001       H  0.56912191  0.85904253  0.06184128     0.15200
C1002       C  0.60847685  0.86688629  0.10459193    -0.23800
H1003       H  0.55141874  0.76416372  0.11735506     0.05400
H1004       H  0.54723679  0.76862814  0.07061329     0.08600
H1005       H  0.52585910  0.78296906  0.10222204     0.08600
H1006       H  0.62821988  0.86152088  0.09972137     0.08600
H1007       H  0.60689941  0.87613159  0.13088977     0.08600
H1008       H  0.60306030  0.88074928  0.08409040     0.05400
loop_ 
_geom_bond_atom_site_label_1 
_geom_bond_atom_site_label_2 
_geom_bond_distance 
_geom_bond_site_symmetry_2 
_ccdc_geom_bond_type 
O1           Cu9   2.020       .  S
O1           C11   1.278       .  A
O2           Cu9   2.015   1_556  S
O2           C12   1.278       .  A
O3           Cu9   2.003   1_556  S
O3           C13   1.276       .  A
O4           Cu9   2.005       .  S
O4           C14   1.276       .  A
O5          Cu10   2.004       .  S
O5           C14   1.278       .  A
O6          Cu10   2.011   1_556  S
O6           C13   1.279       .  A
O7          Cu10   2.009   1_556  S
O7           C12   1.277       .  A
O8          Cu10   2.010       .  S
O8           C11   1.279       .  A
Cu9         Cu10   2.366       .  S
C11         C997   1.495       .  S
C12         C962   1.475       .  S
C13         C949   1.492       .  S
C14         C978   1.491       .  S
N15          N16   1.322       .  A
N15          C19   1.345       .  A
N15         Cu23   2.071       .  S
N16          C17   1.344       .  A
N16         Cu22   2.074       .  S
C17          C18   1.383       .  A
C17          H20   1.082       .  S
C18         C930   1.477       .  S
C18          C19   1.383       .  A
C19          H21   1.082       .  S
Cu22         N25   2.074       .  S
Cu23         N33   2.071       .  S
Cu24         N26   2.080       .  S
Cu24         N32   2.079       .  S
N25          N26   1.322       .  A
N25          C29   1.345       .  A
N26          C27   1.346       .  A
C27          C28   1.385       .  A
C27          H30   1.082       .  S
C28         C438   1.474       .  S
C28          C29   1.383       .  A
C29          H31   1.082       .  S
N32          N33   1.322       .  A
N32          C36   1.345       .  A
N33          C34   1.344       .  A
C34          C35   1.383       .  A
C34          H37   1.081       .  S
C35         C946   1.480       .  S
C35          C36   1.384       .  A
C36          H38   1.082       .  S
N39          N40   1.323       .  A
N39          C43   1.346       .  A
N39         Cu47   2.078       .  S
N40          C41   1.346       .  A
N40         Cu46   2.078       .  S
C41          C42   1.382       .  A
C41          H44   1.082       .  S
C42         C965   1.474       .  S
C42          C43   1.381       .  A
C43          H45   1.082       .  S
Cu46         N49   2.078       .  S
Cu47         N57   2.078       .  S
Cu48         N50   2.067       .  S
Cu48         N56   2.068       .  S
N49          N50   1.322       .  A
N49          C53   1.345       .  A
N50          C51   1.344       .  A
C51          C52   1.381       .  A
C51          H54   1.082       .  S
C52         C304   1.470       .  S
C52          C53   1.384       .  A
C53          H55   1.082       .  S
N56          N57   1.322       .  A
N56          C60   1.344       .  A
N57          C58   1.346       .  A
C58          C59   1.384       .  A
C58          H61   1.082       .  S
C59         C914   1.478       .  S
C59          C60   1.382       .  A
C60          H62   1.081       .  S
N63          N64   1.321       .  A
N63          C67   1.346       .  A
N63         Cu71   2.084       .  S
N64          C65   1.345       .  A
N64         Cu70   2.063       .  S
C65          C66   1.384       .  A
C65          H68   1.081       .  S
C66         C898   1.484       .  S
C66          C67   1.387       .  A
C67          H69   1.082       .  S
Cu70         N73   2.062       .  S
Cu71         N81   2.085       .  S
Cu72         N74   2.083       .  S
Cu72         N80   2.084       .  S
N73          N74   1.323       .  A
N73          C77   1.342       .  A
N74          C75   1.347       .  A
C75          C76   1.386       .  A
C75          H78   1.082       .  S
C76         C462   1.469       .  S
C76          C77   1.379       .  A
C77          H79   1.082       .  S
N80          N81   1.324       .  A
N80          C84   1.348       .  A
N81          C82   1.346       .  A
C82          C83   1.384       .  A
C82          H85   1.081       .  S
C83         C994   1.482       .  S
C83          C84   1.384       .  A
C84          H86   1.082       .  S
N87          N88   1.322       .  A
N87          C91   1.343       .  A
N87         Cu95   2.066       .  S
N88          C89   1.345       .  A
N88         Cu94   2.073       .  S
C89          C90   1.384       .  A
C89          H92   1.082       .  S
C90         C981   1.477       .  S
C90          C91   1.382       .  A
C91          H93   1.081       .  S
Cu94         N97   2.073       .  S
Cu95        N105   2.066       .  S
Cu96         N98   2.075       .  S
Cu96        N104   2.075       .  S
N97          N98   1.323       .  A
N97         C101   1.345       .  A
N98          C99   1.345       .  A
C99         C100   1.383       .  A
C99         H102   1.082       .  S
C100        C376   1.471       .  S
C100        C101   1.383       .  A
C101        H103   1.082       .  S
N104        N105   1.322       .  A
N104        C108   1.345       .  A
N105        C106   1.345       .  A
C106        C107   1.381       .  A
C106        H109   1.082       .  S
C107        C882   1.474       .  S
C107        C108   1.383       .  A
C108        H110   1.082       .  S
O111       Cu119   2.006       .  S
O111        C121   1.277       .  A
O112       Cu119   2.005   1_545  S
O112        C122   1.277       .  A
O113       Cu119   2.011       .  S
O113        C123   1.277       .  A
O114       Cu119   2.012   1_545  S
O114        C124   1.279       .  A
O115       Cu120   2.013       .  S
O115        C124   1.278       .  A
O116       Cu120   2.017   1_565  S
O116        C123   1.279       .  A
O117       Cu120   2.009       .  S
O117        C122   1.278       .  A
O118       Cu120   2.008   1_565  S
O118        C121   1.279       .  A
Cu119      Cu120   2.363   1_565  S
C121        C933   1.489       .  S
C122        C866   1.488       .  S
C123        C901   1.496       .  S
C124        C850   1.495       .  S
O125       Cu133   2.008   1_565  S
O125        C135   1.277       .  A
O126       Cu133   2.009       .  S
O126        C136   1.279       .  A
O127       Cu133   2.010   1_565  S
O127        C137   1.277       .  A
O128       Cu133   2.010       .  S
O128        C138   1.279       .  A
O129       Cu134   2.008       .  S
O129        C138   1.277       .  A
O130       Cu134   2.010   1_565  S
O130        C137   1.279       .  A
O131       Cu134   2.014       .  S
O131        C136   1.277       .  A
O132       Cu134   2.011   1_565  S
O132        C135   1.279       .  A
Cu133      Cu134   2.364       .  S
C135        C885   1.485       .  S
C136        C821   1.498       .  S
C137        C917   1.491       .  S
C138        C834   1.491       .  S
O139       Cu147   2.005   1_556  S
O139        C149   1.278       .  A
O140       Cu147   2.000       .  S
O140        C150   1.276       .  A
O141       Cu147   2.007       .  S
O141        C151   1.279       .  A
O142       Cu147   2.007   1_556  S
O142        C152   1.279       .  A
O143       Cu148   2.012   1_556  S
O143        C152   1.277       .  A
O144       Cu148   2.013       .  S
O144        C151   1.277       .  A
O145       Cu148   2.011       .  S
O145        C150   1.279       .  A
O146       Cu148   2.014   1_556  S
O146        C149   1.278       .  A
Cu147      Cu148   2.362       .  S
C149        C770   1.492       .  S
C150        C789   1.488       .  S
C151        C805   1.494       .  S
C152        C754   1.496       .  S
N153        N154   1.322       .  A
N153        C157   1.345       .  A
N153       Cu161   2.076       .  S
N154        C155   1.346       .  A
N154       Cu160   2.079       .  S
C155        C156   1.385       .  A
C155        H158   1.082       .  S
C156        C773   1.483       .  S
C156        C157   1.385       .  A
C157        H159   1.081       .  S
Cu160       N163   2.079       .  S
Cu161       N171   2.076       .  S
Cu162       N164   2.075       .  S
Cu162       N170   2.075       .  S
N163        N164   1.323       .  A
N163        C167   1.346       .  A
N164        C165   1.345       .  A
C165        C166   1.382       .  A
C165        H168   1.082       .  S
C166        C328   1.472       .  S
C166        C167   1.384       .  A
C167        H169   1.082       .  S
N170        N171   1.321       .  A
N170        C174   1.346       .  A
N171        C172   1.345       .  A
C172        C173   1.386       .  A
C172        H175   1.080       .  S
C173        C818   1.485       .  S
C173        C174   1.386       .  A
C174        H176   1.082       .  S
N177        N178   1.322       .  A
N177        C181   1.346       .  A
N177       Cu185   2.080       .  S
N178        C179   1.343       .  A
N178       Cu184   2.067       .  S
C179        C180   1.382       .  A
C179        H182   1.082       .  S
C180        C757   1.481       .  S
C180        C181   1.386       .  A
C181        H183   1.081       .  S
Cu184       N187   2.067       .  S
Cu185       N195   2.080       .  S
Cu186       N188   2.086       .  S
Cu186       N194   2.086       .  S
N187        N188   1.322       .  A
N187        C191   1.345       .  A
N188        C189   1.347       .  A
C189        C190   1.387       .  A
C189        H192   1.082       .  S
C190        C414   1.474       .  S
C190        C191   1.382       .  A
C191        H193   1.082       .  S
N194        N195   1.323       .  A
N194        C198   1.346       .  A
N195        C196   1.347       .  A
C196        C197   1.385       .  A
C196        H199   1.081       .  S
C197        C853   1.483       .  S
C197        C198   1.385       .  A
C198        H200   1.082       .  S
N201        N202   1.321       .  A
N201        C205   1.345       .  A
N201       Cu209   2.078       .  S
N202        C203   1.343       .  A
N202       Cu208   2.061       .  S
C203        C204   1.381       .  A
C203        H206   1.081       .  S
C204        C786   1.477       .  S
C204        C205   1.386       .  A
C205        H207   1.082       .  S
Cu208       N211   2.062       .  S
Cu209       N219   2.078       .  S
Cu210       N212   2.078       .  S
Cu210       N218   2.078       .  S
N211        N212   1.321       .  A
N211        C215   1.344       .  A
N212        C213   1.346       .  A
C213        C214   1.385       .  A
C213        H216   1.082       .  S
C214        C486   1.472       .  S
C214        C215   1.382       .  A
C215        H217   1.082       .  S
N218        N219   1.323       .  A
N218        C222   1.345       .  A
N219        C220   1.345       .  A
C220        C221   1.384       .  A
C220        H223   1.082       .  S
C221        C869   1.479       .  S
C221        C222   1.383       .  A
C222        H224   1.081       .  S
N225        N226   1.322       .  A
N225        C229   1.346       .  A
N225       Cu233   2.080       .  S
N226        C227   1.345       .  A
N226       Cu232   2.072       .  S
C227        C228   1.384       .  A
C227        H230   1.082       .  S
C228        C802   1.483       .  S
C228        C229   1.387       .  A
C229        H231   1.080       .  S
Cu232       N235   2.072       .  S
Cu233       N243   2.080       .  S
Cu234       N236   2.070       .  S
Cu234       N242   2.070       .  S
N235        N236   1.322       .  A
N235        C239   1.345       .  A
N236        C237   1.344       .  A
C237        C238   1.382       .  A
C237        H240   1.082       .  S
C238        C352   1.469       .  S
C238        C239   1.383       .  A
C239        H241   1.082       .  S
N242        N243   1.322       .  A
N242        C246   1.345       .  A
N243        C244   1.345       .  A
C244        C245   1.385       .  A
C244        H247   1.081       .  S
C245        C837   1.479       .  S
C245        C246   1.382       .  A
C246        H248   1.082       .  S
O249       Cu257   2.007       .  S
O249        C259   1.277       .  A
O250       Cu257   2.007   1_655  S
O250        C260   1.277       .  A
O251       Cu257   2.008       .  S
O251        C261   1.278       .  A
O252       Cu257   2.007   1_655  S
O252        C262   1.279       .  A
O253       Cu258   2.017   1_655  S
O253        C262   1.278       .  A
O254       Cu258   2.006       .  S
O254        C261   1.277       .  A
O255       Cu258   2.009   1_655  S
O255        C260   1.279       .  A
O256       Cu258   2.005       .  S
O256        C259   1.277       .  A
Cu257      Cu258   2.367       .  S
C259        C690   1.470       .  S
C260        C738   1.494       .  S
C261        C709   1.487       .  S
C262        C722   1.493       .  S
O263       Cu271   2.005   1_655  S
O263        C273   1.278       .  A
O264       Cu271   2.005       .  S
O264        C274   1.278       .  A
O265       Cu271   2.008   1_655  S
O265        C275   1.278       .  A
O266       Cu271   2.011       .  S
O266        C276   1.279       .  A
O267       Cu272   2.014   1_455  S
O267        C276   1.277       .  A
O268       Cu272   2.009       .  S
O268        C275   1.277       .  A
O269       Cu272   2.006   1_455  S
O269        C274   1.277       .  A
O270       Cu272   2.008       .  S
O270        C273   1.277       .  A
Cu271      Cu272   2.362   1_455  S
C273        C642   1.493       .  S
C274        C658   1.492       .  S
C275        C674   1.486       .  S
C276        C626   1.498       .  S
O277       Cu285   2.003       .  S
O277        C287   1.276       .  A
O278       Cu285   2.006   1_556  S
O278        C288   1.276       .  A
O279       Cu285   2.013   1_556  S
O279        C289   1.279       .  A
O280       Cu285   2.008       .  S
O280        C290   1.277       .  A
O281       Cu286   2.000       .  S
O281        C290   1.278       .  A
O282       Cu286   1.998   1_556  S
O282        C289   1.276       .  A
O283       Cu286   2.004   1_556  S
O283        C288   1.279       .  A
O284       Cu286   2.003       .  S
O284        C287   1.276       .  A
Cu285      Cu286   2.367       .  S
C287        C610   1.465       .  S
C288        C562   1.493       .  S
C289        C578   1.487       .  S
C290        C597   1.493       .  S
N291        N292   1.320       .  A
N291        C295   1.343       .  A
N291       Cu299   2.066       .  S
N292        C293   1.343       .  A
N292       Cu298   2.067       .  S
C293        C294   1.387       .  A
C293        H296   1.078       .  S
C294        C565   1.486       .  S
C294        C295   1.386       .  A
C295        H297   1.082       .  S
Cu298       N301   2.067       .  S
Cu299       N309   2.066       .  S
Cu300       N302   2.078       .  S
Cu300       N308   2.078       .  S
N301        N302   1.322       .  A
N301        C305   1.344       .  A
N302        C303   1.346       .  A
C303        C304   1.384       .  A
C303        H306   1.082       .  S
C304        C305   1.381       .  A
C305        H307   1.082       .  S
N308        N309   1.321       .  A
N308        C312   1.345       .  A
N309        C310   1.343       .  A
C310        C311   1.385       .  A
C310        H313   1.079       .  S
C311        C693   1.484       .  S
C311        C312   1.387       .  A
C312        H314   1.082       .  S
N315        N316   1.322       .  A
N315        C319   1.345       .  A
N315       Cu323   2.073       .  S
N316        C317   1.344       .  A
N316       Cu322   2.072       .  S
C317        C318   1.384       .  A
C317        H320   1.082       .  S
C318        C581   1.480       .  S
C318        C319   1.384       .  A
C319        H321   1.081       .  S
Cu322       N325   2.072       .  S
Cu323       N333   2.074       .  S
Cu324       N326   2.077       .  S
Cu324       N332   2.077       .  S
N325        N326   1.322       .  A
N325        C329   1.346       .  A
N326        C327   1.345       .  A
C327        C328   1.384       .  A
C327        H330   1.082       .  S
C328        C329   1.383       .  A
C329        H331   1.082       .  S
N332        N333   1.322       .  A
N332        C336   1.345       .  A
N333        C334   1.345       .  A
C334        C335   1.386       .  A
C334        H337   1.080       .  S
C335        C629   1.485       .  S
C335        C336   1.386       .  A
C336        H338   1.082       .  S
N339        N340   1.322       .  A
N339        C343   1.345       .  A
N339       Cu347   2.073       .  S
N340        C341   1.343       .  A
N340       Cu346   2.070       .  S
C341        C342   1.383       .  A
C341        H344   1.081       .  S
C342        C613   1.478       .  S
C342        C343   1.383       .  A
C343        H345   1.082       .  S
Cu346       N349   2.070       .  S
Cu347       N357   2.073       .  S
Cu348       N350   2.068       .  S
Cu348       N356   2.068       .  S
N349        N350   1.322       .  A
N349        C353   1.345       .  A
N350        C351   1.344       .  A
C351        C352   1.382       .  A
C351        H354   1.082       .  S
C352        C353   1.383       .  A
C353        H355   1.082       .  S
N356        N357   1.322       .  A
N356        C360   1.344       .  A
N357        C358   1.345       .  A
C358        C359   1.383       .  A
C358        H361   1.082       .  S
C359        C661   1.475       .  S
C359        C360   1.381       .  A
C360        H362   1.082       .  S
N363        N364   1.321       .  A
N363        C367   1.344       .  A
N363       Cu371   2.068       .  S
N364        C365   1.343       .  A
N364       Cu370   2.070       .  S
C365        C366   1.384       .  A
C365        H368   1.080       .  S
C366        C594   1.479       .  S
C366        C367   1.384       .  A
C367        H369   1.082       .  S
Cu370       N373   2.070       .  S
Cu371       N381   2.068       .  S
Cu372       N374   2.072       .  S
Cu372       N380   2.072       .  S
N373        N374   1.322       .  A
N373        C377   1.345       .  A
N374        C375   1.345       .  A
C375        C376   1.383       .  A
C375        H378   1.082       .  S
C376        C377   1.383       .  A
C377        H379   1.082       .  S
N380        N381   1.322       .  A
N380        C384   1.343       .  A
N381        C382   1.345       .  A
C382        C383   1.384       .  A
C382        H385   1.081       .  S
C383        C706   1.479       .  S
C383        C384   1.384       .  A
C384        H386   1.082       .  S
O387       Cu395   2.007       .  S
O387        C397   1.278       .  A
O388       Cu395   2.004   1_554  S
O388        C398   1.278       .  A
O389       Cu395   2.016   1_554  S
O389        C399   1.280       .  A
O390       Cu395   2.021       .  S
O390        C400   1.279       .  A
O391       Cu396   2.006       .  S
O391        C400   1.278       .  A
O392       Cu396   1.999   1_554  S
O392        C399   1.275       .  A
O393       Cu396   2.021   1_554  S
O393        C398   1.279       .  A
O394       Cu396   2.025       .  S
O394        C397   1.279       .  A
Cu395      Cu396   2.360       .  S
C397        C498   1.499       .  S
C398        C549   1.498       .  S
C399        C530   1.493       .  S
C400        C514   1.497       .  S
N401        N402   1.323       .  A
N401        C405   1.345       .  A
N401       Cu409   2.075       .  S
N402        C403   1.347       .  A
N402       Cu408   2.089       .  S
C403        C404   1.386       .  A
C403        H406   1.082       .  S
C404        C517   1.485       .  S
C404        C405   1.384       .  A
C405        H407   1.081       .  S
Cu408       N411   2.089       .  S
Cu409       N419   2.074       .  S
Cu410       N412   2.068       .  S
Cu410       N418   2.068       .  S
N411        N412   1.323       .  A
N411        C415   1.347       .  A
N412        C413   1.344       .  A
C413        C414   1.381       .  A
C413        H416   1.082       .  S
C414        C415   1.387       .  A
C415        H417   1.082       .  S
N418        N419   1.321       .  A
N418        C422   1.344       .  A
N419        C420   1.345       .  A
C420        C421   1.386       .  A
C420        H423   1.081       .  S
C421        C645   1.481       .  S
C421        C422   1.384       .  A
C422        H424   1.082       .  S
N425        N426   1.321       .  A
N425        C429   1.346       .  A
N425       Cu433   2.078       .  S
N426        C427   1.346       .  A
N426       Cu432   2.078       .  S
C427        C428   1.386       .  A
C427        H430   1.081       .  S
C428        C501   1.486       .  S
C428        C429   1.386       .  A
C429        H431   1.082       .  S
Cu432       N435   2.077       .  S
Cu433       N443   2.078       .  S
Cu434       N436   2.083       .  S
Cu434       N442   2.083       .  S
N435        N436   1.323       .  A
N435        C439   1.346       .  A
N436        C437   1.346       .  A
C437        C438   1.385       .  A
C437        H440   1.082       .  S
C438        C439   1.383       .  A
C439        H441   1.082       .  S
N442        N443   1.323       .  A
N442        C446   1.348       .  A
N443        C444   1.345       .  A
C444        C445   1.384       .  A
C444        H447   1.081       .  S
C445        C725   1.483       .  S
C445        C446   1.385       .  A
C446        H448   1.082       .  S
N449        N450   1.321       .  A
N449        C453   1.348       .  A
N449       Cu457   2.085       .  S
N450        C451   1.341       .  A
N450       Cu456   2.058       .  S
C451        C452   1.380       .  A
C451        H454   1.081       .  S
C452        C533   1.480       .  S
C452        C453   1.388       .  A
C453        H455   1.082       .  S
Cu456       N459   2.058       .  S
Cu457       N467   2.085       .  S
Cu458       N460   2.074       .  S
Cu458       N466   2.075       .  S
N459        N460   1.321       .  A
N459        C463   1.344       .  A
N460        C461   1.344       .  A
C461        C462   1.385       .  A
C461        H464   1.082       .  S
C462        C463   1.381       .  A
C463        H465   1.082       .  S
N466        N467   1.323       .  A
N466        C470   1.345       .  A
N467        C468   1.345       .  A
C468        C469   1.387       .  A
C468        H471   1.082       .  S
C469        C741   1.485       .  S
C469        C470   1.385       .  A
C470        H472   1.080       .  S
N473        N474   1.322       .  A
N473        C477   1.345       .  A
N473       Cu481   2.075       .  S
N474        C475   1.346       .  A
N474       Cu480   2.081       .  S
C475        C476   1.387       .  A
C475        H478   1.081       .  S
C476        C546   1.485       .  S
C476        C477   1.385       .  A
C477        H479   1.082       .  S
Cu480       N483   2.081       .  S
Cu481       N491   2.075       .  S
Cu482       N484   2.072       .  S
Cu482       N490   2.073       .  S
N483        N484   1.323       .  A
N483        C487   1.346       .  A
N484        C485   1.345       .  A
C485        C486   1.382       .  A
C485        H488   1.082       .  S
C486        C487   1.384       .  A
C487        H489   1.082       .  S
N490        N491   1.322       .  A
N490        C494   1.345       .  A
N491        C492   1.345       .  A
C492        C493   1.384       .  A
C492        H495   1.081       .  S
C493        C677   1.478       .  S
C493        C494   1.383       .  A
C494        H496   1.082       .  S
C497        C498   1.409       .  A
C497        C502   1.405       .  A
C497        H504   1.083       .  S
C498        C499   1.421       .  A
C499        C500   1.408       .  A
C499        C506   1.508       .  S
C500        C501   1.403       .  A
C500        H505   1.084       .  S
C501        C502   1.413       .  A
C502        C503   1.508       .  S
C503        H507   1.111       .  S
C503        H508   1.110       .  S
C503        H509   1.107       .  S
C506        H510   1.110       .  S
C506        H511   1.111       .  S
C506        H512   1.111       .  S
C513        C514   1.409       .  A
C513        C518   1.405       .  A
C513        H520   1.083       .  S
C514        C515   1.421       .  A
C515        C516   1.407       .  A
C515        C522   1.508       .  S
C516        C517   1.402       .  A
C516        H521   1.084       .  S
C517        C518   1.413       .  A
C518        C519   1.508       .  S
C519        H523   1.111       .  S
C519        H524   1.107       .  S
C519        H525   1.110       .  S
C522        H526   1.110       .  S
C522        H527   1.110       .  S
C522        H528   1.111       .  S
C529        C530   1.407       .  A
C529        C534   1.403       .  A
C529        H536   1.084       .  S
C530        C531   1.423       .  A
C531        C532   1.405       .  A
C531        C538   1.509       .  S
C532        C533   1.400       .  A
C532        H537   1.084       .  S
C533        C534   1.414       .  A
C534        C535   1.509       .  S
C535        H539   1.111       .  S
C535        H540   1.107       .  S
C535        H541   1.110       .  S
C538        H542   1.110       .  S
C538        H543   1.110       .  S
C538        H544   1.111       .  S
C545        C546   1.403       .  A
C545        C550   1.407       .  A
C545        H552   1.084       .  S
C546        C547   1.412       .  A
C547        C548   1.405       .  A
C547        C554   1.508       .  S
C548        C549   1.410       .  A
C548        H553   1.083       .  S
C549        C550   1.422       .  A
C550        C551   1.508       .  S
C551        H555   1.111       .  S
C551        H556   1.110       .  S
C551        H557   1.110       .  S
C554        H558   1.110       .  S
C554        H559   1.107       .  S
C554        H560   1.111       .  S
C561        C562   1.407       .  A
C561        C566   1.402       .  A
C561        H568   1.083       .  S
C562        C563   1.421       .  A
C563        C564   1.405       .  A
C563        C570   1.509       .  S
C564        C565   1.404       .  A
C564        H569   1.084       .  S
C565        C566   1.415       .  A
C566        C567   1.508       .  S
C567        H571   1.111       .  S
C567        H572   1.107       .  S
C567        H573   1.110       .  S
C570        H574   1.110       .  S
C570        H575   1.110       .  S
C570        H576   1.111       .  S
C577        C578   1.406       .  A
C577        C582   1.403       .  A
C577        H584   1.084       .  S
C578        C579   1.420       .  A
C579        C580   1.404       .  A
C579        C586   1.509       .  S
C580        C581   1.402       .  A
C580        H585   1.084       .  S
C581        C582   1.413       .  A
C582        C583   1.508       .  S
C583        H587   1.111       .  S
C583        H588   1.110       .  S
C583        H589   1.107       .  S
C586        H590   1.110       .  S
C586        H591   1.110       .  S
C586        H592   1.111       .  S
C593        C594   1.402       .  A
C593        C598   1.405       .  A
C593        H600   1.084       .  S
C594        C595   1.412       .  A
C595        C596   1.401       .  A
C595        C602   1.508       .  S
C596        C597   1.409       .  A
C596        H601   1.083       .  S
C597        C598   1.422       .  A
C598        C599   1.508       .  S
C599        H603   1.111       .  S
C599        H604   1.110       .  S
C599        H605   1.110       .  S
C602        H606   1.110       .  S
C602        H607   1.107       .  S
C602        H608   1.111       .  S
C609        C610   1.399       .  A
C609        C614   1.402       .  A
C609        H616   1.085       .  S
C610        C611   1.409       .  A
C611        C612   1.403       .  A
C611        C618   1.507       .  S
C612        C613   1.405       .  A
C612        H617   1.084       .  S
C613        C614   1.416       .  A
C614        C615   1.507       .  S
C615        H619   1.111       .  S
C615        H620   1.110       .  S
C615        H621   1.107       .  S
C618        H622   1.110       .  S
C618        H623   1.111       .  S
C618        H624   1.111       .  S
C625        C626   1.408       .  A
C625        C630   1.404       .  A
C625        H632   1.083       .  S
C626        C627   1.423       .  A
C627        C628   1.407       .  A
C627        C634   1.508       .  S
C628        C629   1.403       .  A
C628        H633   1.084       .  S
C629        C630   1.414       .  A
C630        C631   1.508       .  S
C631        H635   1.111       .  S
C631        H636   1.110       .  S
C631        H637   1.107       .  S
C634        H638   1.110       .  S
C634        H639   1.110       .  S
C634        H640   1.111       .  S
C641        C642   1.409       .  A
C641        C646   1.403       .  A
C641        H648   1.083       .  S
C642        C643   1.422       .  A
C643        C644   1.405       .  A
C643        C650   1.508       .  S
C644        C645   1.402       .  A
C644        H649   1.084       .  S
C645        C646   1.412       .  A
C646        C647   1.508       .  S
C647        H651   1.111       .  S
C647        H652   1.107       .  S
C647        H653   1.110       .  S
C650        H654   1.110       .  S
C650        H655   1.110       .  S
C650        H656   1.111       .  S
C657        C658   1.409       .  A
C657        C662   1.403       .  A
C657        H664   1.084       .  S
C658        C659   1.422       .  A
C659        C660   1.404       .  A
C659        C666   1.508       .  S
C660        C661   1.400       .  A
C660        H665   1.084       .  S
C661        C662   1.410       .  A
C662        C663   1.508       .  S
C663        H667   1.111       .  S
C663        H668   1.108       .  S
C663        H669   1.110       .  S
C666        H670   1.110       .  S
C666        H671   1.110       .  S
C666        H672   1.111       .  S
C673        C674   1.406       .  A
C673        C678   1.403       .  A
C673        H680   1.084       .  S
C674        C675   1.418       .  A
C675        C676   1.405       .  A
C675        C682   1.508       .  S
C676        C677   1.402       .  A
C676        H681   1.084       .  S
C677        C678   1.412       .  A
C678        C679   1.507       .  S
C679        H683   1.111       .  S
C679        H684   1.110       .  S
C679        H685   1.108       .  S
C682        H686   1.109       .  S
C682        H687   1.110       .  S
C682        H688   1.111       .  S
C689        C690   1.399       .  A
C689        C694   1.404       .  A
C689        H696   1.084       .  S
C690        C691   1.410       .  A
C691        C692   1.402       .  A
C691        C698   1.508       .  S
C692        C693   1.406       .  A
C692        H697   1.084       .  S
C693        C694   1.419       .  A
C694        C695   1.507       .  S
C695        H699   1.111       .  S
C695        H700   1.110       .  S
C695        H701   1.107       .  S
C698        H702   1.110       .  S
C698        H703   1.111       .  S
C698        H704   1.111       .  S
C705        C706   1.402       .  A
C705        C710   1.403       .  A
C705        H712   1.084       .  S
C706        C707   1.413       .  A
C707        C708   1.404       .  A
C707        C714   1.508       .  S
C708        C709   1.407       .  A
C708        H713   1.084       .  S
C709        C710   1.419       .  A
C710        C711   1.508       .  S
C711        H715   1.111       .  S
C711        H716   1.109       .  S
C711        H717   1.111       .  S
C714        H718   1.110       .  S
C714        H719   1.108       .  S
C714        H720   1.111       .  S
C721        C722   1.407       .  A
C721        C726   1.403       .  A
C721        H728   1.084       .  S
C722        C723   1.421       .  A
C723        C724   1.408       .  A
C723        C730   1.508       .  S
C724        C725   1.403       .  A
C724        H729   1.084       .  S
C725        C726   1.412       .  A
C726        C727   1.508       .  S
C727        H731   1.111       .  S
C727        H732   1.110       .  S
C727        H733   1.107       .  S
C730        H734   1.110       .  S
C730        H735   1.111       .  S
C730        H736   1.111       .  S
C737        C738   1.409       .  A
C737        C742   1.405       .  A
C737        H744   1.084       .  S
C738        C739   1.421       .  A
C739        C740   1.404       .  A
C739        C746   1.509       .  S
C740        C741   1.402       .  A
C740        H745   1.084       .  S
C741        C742   1.414       .  A
C742        C743   1.508       .  S
C743        H747   1.111       .  S
C743        H748   1.107       .  S
C743        H749   1.110       .  S
C746        H750   1.110       .  S
C746        H751   1.110       .  S
C746        H752   1.111       .  S
C753        C754   1.410       .  A
C753        C758   1.404       .  A
C753        H760   1.083       .  S
C754        C755   1.422       .  A
C755        C756   1.405       .  A
C755        C762   1.508       .  S
C756        C757   1.402       .  A
C756        H761   1.084       .  S
C757        C758   1.411       .  A
C758        C759   1.508       .  S
C759        H763   1.111       .  S
C759        H764   1.110       .  S
C759        H765   1.108       .  S
C762        H766   1.110       .  S
C762        H767   1.110       .  S
C762        H768   1.111       .  S
C769        C770   1.408       .  A
C769        C774   1.404       .  A
C769        H776   1.084       .  S
C770        C771   1.420       .  A
C771        C772   1.406       .  A
C771        C778   1.508       .  S
C772        C773   1.403       .  A
C772        H777   1.084       .  S
C773        C774   1.413       .  A
C774        C775   1.508       .  S
C775        H779   1.111       .  S
C775        H780   1.107       .  S
C775        H781   1.110       .  S
C778        H782   1.111       .  S
C778        H783   1.110       .  S
C778        H784   1.111       .  S
C785        C786   1.400       .  A
C785        C790   1.403       .  A
C785        H792   1.084       .  S
C786        C787   1.413       .  A
C787        C788   1.404       .  A
C787        C794   1.508       .  S
C788        C789   1.407       .  A
C788        H793   1.084       .  S
C789        C790   1.421       .  A
C790        C791   1.509       .  S
C791        H795   1.111       .  S
C791        H796   1.111       .  S
C791        H797   1.109       .  S
C794        H798   1.108       .  S
C794        H799   1.110       .  S
C794        H800   1.111       .  S
C801        C802   1.403       .  A
C801        C806   1.407       .  A
C801        H808   1.084       .  S
C802        C803   1.413       .  A
C803        C804   1.403       .  A
C803        C810   1.508       .  S
C804        C805   1.408       .  A
C804        H809   1.084       .  S
C805        C806   1.421       .  A
C806        C807   1.508       .  S
C807        H811   1.111       .  S
C807        H812   1.110       .  S
C807        H813   1.110       .  S
C810        H814   1.110       .  S
C810        H815   1.107       .  S
C810        H816   1.111       .  S
C817        C818   1.402       .  A
C817        C822   1.407       .  A
C817        H824   1.084       .  S
C818        C819   1.413       .  A
C819        C820   1.404       .  A
C819        C826   1.508       .  S
C820        C821   1.409       .  A
C820        H825   1.083       .  S
C821        C822   1.423       .  A
C822        C823   1.508       .  S
C823        H827   1.111       .  S
C823        H828   1.110       .  S
C823        H829   1.110       .  S
C826        H830   1.107       .  S
C826        H831   1.110       .  S
C826        H832   1.111       .  S
C833        C834   1.407       .  A
C833        C838   1.403       .  A
C833        H840   1.084       .  S
C834        C835   1.421       .  A
C835        C836   1.406       .  A
C835        C842   1.508       .  S
C836        C837   1.401       .  A
C836        H841   1.084       .  S
C837        C838   1.412       .  A
C838        C839   1.508       .  S
C839        H843   1.111       .  S
C839        H844   1.110       .  S
C839        H845   1.108       .  S
C842        H846   1.110       .  S
C842        H847   1.111       .  S
C842        H848   1.111       .  S
C849        C850   1.409       .  A
C849        C854   1.406       .  A
C849        H856   1.084       .  S
C850        C851   1.421       .  A
C851        C852   1.405       .  A
C851        C858   1.508       .  S
C852        C853   1.401       .  A
C852        H857   1.084       .  S
C853        C854   1.412       .  A
C854        C855   1.507       .  S
C855        H859   1.111       .  S
C855        H860   1.110       .  S
C855        H861   1.108       .  S
C858        H862   1.110       .  S
C858        H863   1.111       .  S
C858        H864   1.111       .  S
C865        C866   1.407       .  A
C865        C870   1.404       .  A
C865        H872   1.084       .  S
C866        C867   1.420       .  A
C867        C868   1.404       .  A
C867        C874   1.509       .  S
C868        C869   1.401       .  A
C868        H873   1.084       .  S
C869        C870   1.412       .  A
C870        C871   1.507       .  S
C871        H875   1.111       .  S
C871        H876   1.108       .  S
C871        H877   1.110       .  S
C874        H878   1.111       .  S
C874        H879   1.109       .  S
C874        H880   1.111       .  S
C881        C882   1.400       .  A
C881        C886   1.405       .  A
C881        H888   1.084       .  S
C882        C883   1.411       .  A
C883        C884   1.403       .  A
C883        C890   1.507       .  S
C884        C885   1.406       .  A
C884        H889   1.084       .  S
C885        C886   1.419       .  A
C886        C887   1.507       .  S
C887        H891   1.111       .  S
C887        H892   1.109       .  S
C887        H893   1.109       .  S
C890        H894   1.109       .  S
C890        H895   1.111       .  S
C890        H896   1.111       .  S
C897        C898   1.401       .  A
C897        C902   1.405       .  A
C897        H904   1.084       .  S
C898        C899   1.414       .  A
C899        C900   1.406       .  A
C899        C906   1.508       .  S
C900        C901   1.409       .  A
C900        H905   1.084       .  S
C901        C902   1.422       .  A
C902        C903   1.508       .  S
C903        H907   1.111       .  S
C903        H908   1.109       .  S
C903        H909   1.110       .  S
C906        H910   1.110       .  S
C906        H911   1.108       .  S
C906        H912   1.111       .  S
C913        C914   1.400       .  A
C913        C918   1.406       .  A
C913        H920   1.084       .  S
C914        C915   1.411       .  A
C915        C916   1.403       .  A
C915        C922   1.508       .  S
C916        C917   1.407       .  A
C916        H921   1.084       .  S
C917        C918   1.421       .  A
C918        C919   1.507       .  S
C919        H923   1.111       .  S
C919        H924   1.109       .  S
C919        H925   1.109       .  S
C922        H926   1.110       .  S
C922        H927   1.108       .  S
C922        H928   1.111       .  S
C929        C930   1.401       .  A
C929        C934   1.405       .  A
C929        H936   1.084       .  S
C930        C931   1.411       .  A
C931        C932   1.403       .  A
C931        C938   1.507       .  S
C932        C933   1.407       .  A
C932        H937   1.084       .  S
C933        C934   1.420       .  A
C934        C935   1.508       .  S
C935        H939   1.111       .  S
C935        H940   1.110       .  S
C935        H941   1.110       .  S
C938        H942   1.108       .  S
C938        H943   1.110       .  S
C938        H944   1.111       .  S
C945        C946   1.401       .  A
C945        C950   1.405       .  A
C945        H952   1.084       .  S
C946        C947   1.413       .  A
C947        C948   1.403       .  A
C947        C954   1.508       .  S
C948        C949   1.407       .  A
C948        H953   1.084       .  S
C949        C950   1.422       .  A
C950        C951   1.508       .  S
C951        H955   1.111       .  S
C951        H956   1.110       .  S
C951        H957   1.110       .  S
C954        H958   1.108       .  S
C954        H959   1.110       .  S
C954        H960   1.111       .  S
C961        C962   1.404       .  A
C961        C966   1.405       .  A
C961        H968   1.084       .  S
C962        C963   1.412       .  A
C963        C964   1.405       .  A
C963        C970   1.507       .  S
C964        C965   1.402       .  A
C964        H969   1.084       .  S
C965        C966   1.411       .  A
C966        C967   1.506       .  S
C967        H971   1.111       .  S
C967        H972   1.110       .  S
C967        H973   1.110       .  S
C970        H974   1.110       .  S
C970        H975   1.111       .  S
C970        H976   1.111       .  S
C977        C978   1.408       .  A
C977        C982   1.402       .  A
C977        H984   1.083       .  S
C978        C979   1.421       .  A
C979        C980   1.404       .  A
C979        C986   1.508       .  S
C980        C981   1.400       .  A
C980        H985   1.084       .  S
C981        C982   1.412       .  A
C982        C983   1.508       .  S
C983        H987   1.111       .  S
C983        H988   1.108       .  S
C983        H989   1.110       .  S
C986        H990   1.111       .  S
C986        H991   1.110       .  S
C986        H992   1.111       .  S
C993        C994   1.402       .  A
C993        C998   1.409       .  A
C993       H1000   1.085       .  S
C994        C995   1.411       .  A
C995        C996   1.404       .  A
C995       C1002   1.508       .  S
C996        C997   1.408       .  A
C996       H1001   1.084       .  S
C997        C998   1.422       .  A
C998        C999   1.508       .  S
C999       H1003   1.111       .  S
C999       H1004   1.110       .  S
C999       H1005   1.111       .  S
C1002      H1006   1.110       .  S
C1002      H1007   1.108       .  S
C1002      H1008   1.111       .  S
