geometry optimzed in LAMMPS
_audit_creation_date              2020-12-01 
_audit_creation_method            'lammps2cif' 
_symmetry_space_group_name_H-M    'P1' 
_symmetry_Int_Tables_number       1 
_symmetry_cell_setting            triclinic 
loop_ 
_symmetry_equiv_pos_as_xyz 
  x,y,z 
_cell_length_a                    49.34426234 
_cell_length_b                    49.35204956198691 
_cell_length_c                    49.31888125369809 
_cell_angle_alpha                 90.00488196495762 
_cell_angle_beta                  89.96795287759315 
_cell_angle_gamma                 89.99948586864816 
loop_ 
_atom_site_label 
_atom_site_type_symbol 
_atom_site_fract_x 
_atom_site_fract_y 
_atom_site_fract_z 
_atom_site_charge 
O1          O  0.24516943  0.03225741  0.25176087    -0.80500
C2          C  0.26934999  0.96280025  0.16340554     0.98800
O3          O  0.24838846  0.97722725  0.16567051    -0.69700
O4          O  0.22361609  0.96779324  0.21146647    -0.73200
Al5        Al  0.23586909  0.99993998  0.19460868     1.49000
C6          C  0.22158624  0.96395883  0.23659051     0.94100
O7          O  0.28852669  0.96829990  0.25122718    -0.79500
O8          O  0.31012806  0.03345610  0.21150676    -0.73000
Al9        Al  0.26700471  0.00038180  0.24924893     1.90100
O10         O  0.31820440  0.97898046  0.21986831    -0.72100
O11         O  0.28620784  0.02339055  0.16532525    -0.71900
O12         O  0.29063423  0.96836845  0.17623812    -0.77600
O13         O  0.24396321  0.03226802  0.17575079    -0.75800
O14         O  0.26709741  0.00048564  0.21294416    -1.11900
O15         O  0.21630422  0.02207999  0.21944597    -0.71100
C16         C  0.22279351  0.03584392  0.23992993     0.99600
C17         C  0.31080770  0.96426640  0.23938492     0.96000
Al18       Al  0.29852768  0.00101109  0.19478113     1.55600
O19         O  0.23572563  0.97733195  0.25320758    -0.75800
C20         C  0.26509995  0.03752385  0.16256264     1.00100
C21         C  0.31142374  0.03795453  0.23657887     0.95000
O22         O  0.29815403  0.02377176  0.25330817    -0.81100
O23         O  0.75870217  0.96893628  0.24944184    -0.80500
C24         C  0.73464998  0.03708435  0.15997647     0.98800
O25         O  0.75535868  0.02233626  0.16235558    -0.69700
O26         O  0.77974264  0.03320814  0.20813768    -0.73200
Al27       Al  0.76784781  0.00057897  0.19204595     1.49000
C28         C  0.78184713  0.03728795  0.23322987     0.94100
O29         O  0.71517211  0.03281065  0.24864230    -0.79500
O30         O  0.69336584  0.96784281  0.20930937    -0.73000
Al31       Al  0.73677861  0.00078116  0.24668830     1.90100
O32         O  0.68570417  0.02250288  0.21699887    -0.72100
O33         O  0.71763644  0.97682606  0.16320339    -0.71900
O34         O  0.71343015  0.03218566  0.17318926    -0.77600
O35         O  0.75973613  0.96774345  0.17420848    -0.75800
O36         O  0.73661720  0.00039761  0.21040522    -1.11900
O37         O  0.78775600  0.97927608  0.21739932    -0.71100
C38         C  0.78128575  0.96557792  0.23792952     0.99600
C39         C  0.69299386  0.03702856  0.23670745     0.96000
Al40       Al  0.70525112  0.99988815  0.19221631     1.55600
O41         O  0.76795093  0.02396522  0.25011884    -0.75800
C42         C  0.73862216  0.96234644  0.16104516     1.00100
C43         C  0.69241647  0.96320840  0.23435260     0.95000
O44         O  0.70577843  0.97734391  0.25101654    -0.81100
O45         O  0.24326521  0.24342794  0.04214768    -0.80500
C46         C  0.15338355  0.26603222  0.97406980     0.98800
O47         O  0.15636090  0.24508102  0.98837719    -0.69700
O48         O  0.20283250  0.22214977  0.97727246    -0.73200
Al49       Al  0.18632287  0.23304996  0.01008824     1.49000
C50         C  0.22796874  0.22057770  0.97327512     0.94100
O51         O  0.24144799  0.28733366  0.97871276    -0.79500
O52         O  0.20175707  0.30751595  0.04413291    -0.73000
Al53       Al  0.24010063  0.26545029  0.01048673     1.90100
O54         O  0.20916975  0.31598581  0.98950679    -0.72100
O55         O  0.15631558  0.28216493  0.03479893    -0.71900
O56         O  0.16600887  0.28747839  0.97945229    -0.77600
O57         O  0.16816509  0.24013147  0.04307845    -0.75800
O58         O  0.20384159  0.26471464  0.01084383    -1.11900
O59         O  0.21217235  0.21358721  0.03117475    -0.71100
C60         C  0.23237397  0.22051416  0.04512834     0.99600
C61         C  0.22899938  0.30928641  0.97484723     0.96000
Al62       Al  0.18490007  0.29560013  0.01187890     1.55600
O63         O  0.24447986  0.23453218  0.98699272    -0.75800
C64         C  0.15465871  0.26091453  0.04894212     1.00100
C65         C  0.22680870  0.30923231  0.04845270     0.95000
O66         O  0.24366647  0.29636071  0.03410313    -0.81100
O67         O  0.24406000  0.75712033  0.97813591    -0.80500
C68         C  0.15368694  0.73525120  0.04539140     0.98800
O69         O  0.15624609  0.75577417  0.03038474    -0.69700
O70         O  0.20230941  0.77914022  0.04181824    -0.73200
Al71       Al  0.18646190  0.76766496  0.00894120     1.49000
C72         C  0.22733295  0.78057778  0.04643751     0.94100
O73         O  0.24113375  0.71373457  0.04196348    -0.79500
O74         O  0.20212960  0.69304849  0.97617243    -0.73000
Al75       Al  0.24026873  0.73531439  0.00990488     1.90100
O76         O  0.20934271  0.68476123  0.03086851    -0.72100
O77         O  0.15651748  0.71830923  0.98517147    -0.71900
O78         O  0.16641333  0.71374272  0.04053171    -0.77600
O79         O  0.16891167  0.75994969  0.97580744    -0.75800
O80         O  0.20407094  0.73604791  0.00897751    -1.11900
O81         O  0.21260329  0.78696385  0.98798663    -0.71100
C82         C  0.23317019  0.77995657  0.97459643     0.99600
C83         C  0.22877881  0.69174796  0.04590123     0.96000
Al84       Al  0.18517168  0.70513783  0.00824104     1.55600
O85         O  0.24413865  0.76640535  0.03327299    -0.75800
C86         C  0.15516182  0.73919673  0.97045481     1.00100
C87         C  0.22721205  0.69127387  0.97202110     0.95000
O88         O  0.24403082  0.70416609  0.98644725    -0.81100
O89         O  0.97075045  0.24449454  0.76505545    -0.80500
C90         C  0.03732295  0.15362092  0.74294969     0.98800
O91         O  0.02227264  0.15637269  0.76342847    -0.69700
O92         O  0.03380343  0.20217950  0.78756067    -0.73200
Al93       Al  0.00094749  0.18662614  0.77537190     1.49000
C94         C  0.03846956  0.22718734  0.78942277     0.94100
O95         O  0.03505760  0.24181122  0.72231974    -0.79500
O96         O  0.96946823  0.20341294  0.70041921    -0.73000
Al97       Al  0.00277307  0.24079080  0.74361418     1.90100
O98         O  0.02426724  0.21016252  0.69303221    -0.72100
O99         O  0.97734038  0.15749278  0.72527290    -0.71900
O100        O  0.03295111  0.16667321  0.72153138    -0.77600
O101        O  0.96770603  0.16940642  0.76700527    -0.75800
O102        O  0.00159750  0.20457060  0.74392022    -1.11900
O103        O  0.97994735  0.21267902  0.79470542    -0.71100
C104        C  0.96679463  0.23338474  0.78772562     0.99600
C105        C  0.03912332  0.22966512  0.70021242     0.96000
Al106      Al  0.00106951  0.18599613  0.71276950     1.55600
O107        O  0.02571815  0.24417306  0.77509946    -0.75800
C108        C  0.96228982  0.15609955  0.74595436     1.00100
C109        C  0.96546490  0.22851449  0.69896551     0.95000
O110        O  0.97978195  0.24509282  0.71225382    -0.81100
O111        O  0.03170444  0.24242326  0.25435363    -0.80500
C112        C  0.96463371  0.15210359  0.27749958     0.98800
O113        O  0.97894125  0.15507318  0.25654613    -0.69700
O114        O  0.96736154  0.20122887  0.23337468    -0.73200
Al115      Al  0.00029514  0.18511565  0.24434134     1.49000
C116        C  0.96302671  0.22630034  0.23188363     0.94100
O117        O  0.96848282  0.24022926  0.29872699    -0.79500
O118        O  0.03423334  0.20105978  0.31863370    -0.73000
Al119      Al  0.00019061  0.23902452  0.27660458     1.90100
O120        O  0.97958796  0.20813400  0.32741965    -0.72100
O121        O  0.02518600  0.15539473  0.29350852    -0.71900
O122        O  0.96982348  0.16486478  0.29891968    -0.77600
O123        O  0.03338224  0.16727766  0.25144482    -0.75800
O124        O  0.00088207  0.20277620  0.27597105    -1.11900
O125        O  0.02114928  0.21099700  0.22471336    -0.71100
C126        C  0.03495605  0.23130996  0.23156588     0.99600
C127        C  0.96474831  0.22783357  0.32075422     0.96000
Al128      Al  0.00210042  0.18395136  0.30693465     1.55600
O129        O  0.97651071  0.24298690  0.24584694    -0.75800
C130        C  0.03925908  0.15371178  0.27217966     1.00100
C131        C  0.03849326  0.22612764  0.32017322     0.95000
O132        O  0.02399087  0.24288312  0.30734893    -0.81100
O133        O  0.97175047  0.75657824  0.25423190    -0.80500
C134        C  0.03815690  0.84761574  0.27677573     0.98800
O135        O  0.02349747  0.84467349  0.25604979    -0.69700
O136        O  0.03461959  0.79905318  0.23183531    -0.73200
Al137      Al  0.00189424  0.81461907  0.24404312     1.49000
C138        C  0.03959935  0.77413830  0.23011028     0.94100
O139        O  0.03597294  0.75926040  0.29682678    -0.79500
O140        O  0.97003919  0.79709086  0.31891655    -0.73000
Al141      Al  0.00372717  0.76025156  0.27559490     1.90100
O142        O  0.02506886  0.79072310  0.32629077    -0.72100
O143        O  0.97774838  0.84336335  0.29432325    -0.71900
O144        O  0.03342814  0.83462595  0.29817875    -0.77600
O145        O  0.96887054  0.83215366  0.25225322    -0.75800
O146        O  0.00240224  0.79652416  0.27544800    -1.11900
O147        O  0.98057719  0.78872599  0.22478819    -0.71100
C148        C  0.96740331  0.76802914  0.23182322     0.99600
C149        C  0.04001074  0.77130384  0.31897834     0.96000
Al150      Al  0.00163860  0.81489536  0.30670927     1.55600
O151        O  0.02676491  0.75702483  0.24418378    -0.75800
C152        C  0.96330067  0.84539365  0.27328047     1.00100
C153        C  0.96613063  0.77194488  0.32017232     0.95000
O154        O  0.98070485  0.75557686  0.30690185    -0.81100
O155        O  0.76150043  0.75672379  0.04047851    -0.80500
C156        C  0.85145588  0.73211953  0.97345394     0.98800
O157        O  0.84927310  0.75285989  0.98823307    -0.69700
O158        O  0.80364418  0.77733823  0.97682788    -0.73200
Al159      Al  0.81939974  0.76556185  0.00974596     1.49000
C160        C  0.77862820  0.77906998  0.97213706     0.94100
O161        O  0.76331678  0.71229955  0.97748807    -0.79500
O162        O  0.80195643  0.69155025  0.04317221    -0.73000
Al163      Al  0.76482837  0.73439972  0.00909209     1.90100
O164        O  0.79478768  0.68298693  0.98862567    -0.72100
O165        O  0.84813036  0.71562505  0.03421490    -0.71900
O166        O  0.83842830  0.71086634  0.97869065    -0.77600
O167        O  0.83678285  0.75765780  0.04298646    -0.75800
O168        O  0.80107210  0.73432496  0.00997031    -1.11900
O169        O  0.79384258  0.78557111  0.03062579    -0.71100
C170        C  0.77301498  0.77924344  0.04391305     0.99600
C171        C  0.77518552  0.69000863  0.97385948     0.96000
Al172      Al  0.81931279  0.70298467  0.01106201     1.55600
O173        O  0.76163365  0.76513382  0.98528240    -0.75800
C174        C  0.84972265  0.73653521  0.04887047     1.00100
C175        C  0.77685911  0.69075152  0.04755084     0.95000
O176        O  0.76036560  0.70386991  0.03301062    -0.81100
O177        O  0.24453952  0.96913281  0.76659067    -0.80500
C178        C  0.26603418  0.03713559  0.85676874     0.98800
O179        O  0.24568902  0.02186964  0.85426656    -0.69700
O180        O  0.22159908  0.03234682  0.80841346    -0.73200
Al181      Al  0.23398657  0.99988978  0.82427924     1.49000
C182        C  0.21989333  0.03705678  0.78342578     0.94100
O183        O  0.28631157  0.03382139  0.76852896    -0.79500
O184        O  0.30933936  0.96895960  0.80748240    -0.73000
Al185      Al  0.26556631  0.00137099  0.76992323     1.90100
O186        O  0.31582396  0.02380274  0.80020771    -0.72100
O187        O  0.28439701  0.97720499  0.85349491    -0.71900
O188        O  0.28744307  0.03269515  0.84370393    -0.77600
O189        O  0.24267232  0.96709166  0.84200678    -0.75800
O190        O  0.26536720  0.00058602  0.80620361    -1.11900
O191        O  0.21488532  0.97824799  0.79847021    -0.71100
C192        C  0.22199868  0.96496204  0.77785175     0.99600
C193        C  0.30829297  0.03836710  0.78062861     0.96000
Al194      Al  0.29654398  0.00065931  0.82467266     1.55600
O195        O  0.23394627  0.02405222  0.76640057    -0.75800
C196        C  0.26377302  0.96217518  0.85539138     1.00100
C197        C  0.31079265  0.96469178  0.78238199     0.95000
O198        O  0.29720695  0.97865610  0.76572576    -0.81100
O199        O  0.03339813  0.75807663  0.76497871    -0.80500
C200        C  0.96486127  0.84724073  0.74159170     0.98800
O201        O  0.97954926  0.84480869  0.76236396    -0.69700
O202        O  0.96881748  0.79878186  0.78650192    -0.73200
Al203      Al  0.00145826  0.81510774  0.77473626     1.49000
C204        C  0.96478883  0.77367026  0.78844232     0.94100
O205        O  0.96968947  0.75881561  0.72170778    -0.79500
O206        O  0.03454903  0.79865881  0.70029059    -0.73000
Al207      Al  0.00159062  0.76076280  0.74326148     1.90100
O208        O  0.97997861  0.79058421  0.69233221    -0.72100
O209        O  0.02523600  0.84443794  0.72477457    -0.71900
O210        O  0.96990371  0.83415899  0.72032242    -0.77600
O211        O  0.03436627  0.83305341  0.76676400    -0.75800
O212        O  0.00178177  0.79700950  0.74337265    -1.11900
O213        O  0.02284680  0.78967289  0.79444052    -0.71100
C214        C  0.03675884  0.76940801  0.78761278     0.99600
C215        C  0.96558162  0.77073541  0.69951426     0.96000
Al216      Al  0.00234229  0.81541256  0.71213318     1.55600
O217        O  0.97831357  0.75694637  0.77450064    -0.75800
C218        C  0.03992697  0.84619757  0.74565508     1.00100
C219        C  0.03925578  0.77367003  0.69905493     0.95000
O220        O  0.02510119  0.75681488  0.71218034    -0.81100
O221        O  0.76235578  0.24449901  0.97796079    -0.80500
C222        C  0.85159631  0.26730031  0.04658830     0.98800
O223        O  0.84943924  0.24694314  0.03130050    -0.69700
O224        O  0.80361035  0.22248408  0.04191160    -0.73200
Al225      Al  0.81964642  0.23482928  0.00937375     1.49000
C226        C  0.77855226  0.22067219  0.04633933     0.94100
O227        O  0.76296257  0.28722825  0.04231492    -0.79500
O228        O  0.80273680  0.30997395  0.97799641    -0.73000
Al229      Al  0.76509164  0.26598739  0.01007419     1.90100
O230        O  0.79480931  0.31669372  0.03275155    -0.72100
O231        O  0.84862073  0.28534116  0.98661881    -0.71900
O232        O  0.83833707  0.28854931  0.04209488    -0.77600
O233        O  0.83731249  0.24356248  0.97649298    -0.75800
O234        O  0.80133238  0.26608644  0.00976422    -1.11900
O235        O  0.79424626  0.21519686  0.98782141    -0.71100
C236        C  0.77381681  0.22199494  0.97415559     0.99600
C237        C  0.77488343  0.30931561  0.04694019     0.96000
Al238      Al  0.81959720  0.29740564  0.00987647     1.55600
O239        O  0.76163619  0.23462108  0.03309269    -0.75800
C240        C  0.85036399  0.26483894  0.97139062     1.00100
C241        C  0.77773610  0.31105266  0.97326761     0.95000
O242        O  0.76099054  0.29726930  0.98692875    -0.81100
O243        O  0.75856642  0.03042002  0.76753554    -0.80500
C244        C  0.73713778  0.96353634  0.85867203     0.98800
O245        O  0.75780749  0.97824415  0.85557434    -0.69700
O246        O  0.78064952  0.96673821  0.80912890    -0.73200
Al247      Al  0.76939604  0.99966597  0.82512355     1.49000
C248        C  0.78169512  0.96200161  0.78408131     0.94100
O249        O  0.71459343  0.96686175  0.77082174    -0.79500
O250        O  0.69428292  0.03241007  0.80993727    -0.73000
Al251      Al  0.73650094  0.99876708  0.77156510     1.90100
O252        O  0.68632431  0.97763234  0.80340360    -0.72100
O253        O  0.72021127  0.02415053  0.85524833    -0.71900
O254        O  0.71552783  0.96854816  0.84620578    -0.77600
O255        O  0.76194674  0.03289280  0.84269375    -0.75800
O256        O  0.73755547  0.99970878  0.80781734    -1.11900
O257        O  0.78859569  0.02057965  0.79878081    -0.71100
C258        C  0.78147553  0.03401992  0.77828800     0.99600
C259        C  0.69287995  0.96279916  0.78366205     0.96000
Al260      Al  0.70679731  0.00060406  0.82707805     1.55600
O261        O  0.76736081  0.97517262  0.76743675    -0.75800
C262        C  0.74118601  0.03877751  0.85624679     1.00100
C263        C  0.69243222  0.03661816  0.78486692     0.95000
O264        O  0.70548399  0.02239403  0.76799688    -0.81100
O265        O  0.47109330  0.25647566  0.26744546    -0.80500
C266        C  0.53901466  0.23562874  0.35793598     0.98800
O267        O  0.52390159  0.25604671  0.35513250    -0.69700
O268        O  0.53480549  0.27893505  0.30852942    -0.73200
Al269      Al  0.50215091  0.26742506  0.32485004     1.49000
C270        C  0.53932848  0.27990507  0.28342882     0.94100
O271        O  0.53471174  0.21264709  0.27009747    -0.79500
O272        O  0.46991395  0.19226909  0.31035114    -0.73000
Al273      Al  0.50278392  0.23446349  0.27127704     1.90100
O274        O  0.52446754  0.18442793  0.30283000    -0.72100
O275        O  0.47899360  0.21821172  0.35549868    -0.71900
O276        O  0.53432098  0.21402111  0.34531143    -0.77600
O277        O  0.46910890  0.25960522  0.34271360    -0.75800
O278        O  0.50226956  0.23560751  0.30753306    -1.11900
O279        O  0.48099197  0.28644730  0.29871462    -0.71100
C280        C  0.46764130  0.27941987  0.27815598     0.99600
C281        C  0.53890116  0.19090443  0.28279191     0.96000
Al282      Al  0.50196412  0.20492369  0.32686040     1.55600
O283        O  0.52624346  0.26534074  0.26691723    -0.75800
C284        C  0.46395390  0.23886797  0.35660143     1.00100
C285        C  0.46517276  0.19044801  0.28536856     0.95000
O286        O  0.47910638  0.20341395  0.26817301    -0.81100
O287        O  0.26196682  0.46804144  0.26313694    -0.80500
C288        C  0.35091563  0.53846002  0.24427827     0.98800
O289        O  0.34812134  0.52308526  0.26451469    -0.69700
O290        O  0.30148564  0.53194448  0.28797530    -0.73200
Al291      Al  0.31856435  0.50014837  0.27532851     1.49000
C292        C  0.27631130  0.53564632  0.28945349     0.94100
O293        O  0.26327457  0.53355747  0.22214802    -0.79500
O294        O  0.30425553  0.46967802  0.19947208    -0.73000
Al295      Al  0.26494311  0.50073488  0.24258239     1.90100
O296        O  0.29574248  0.52448723  0.19314638    -0.72100
O297        O  0.34945002  0.47862369  0.22521381    -0.71900
O298        O  0.33847740  0.53395424  0.22252103    -0.77600
O299        O  0.33730058  0.46791365  0.26659574    -0.75800
O300        O  0.30120477  0.50083377  0.24357113    -1.11900
O301        O  0.29302381  0.47753017  0.29351366    -0.71100
C302        C  0.27295384  0.46378643  0.28581712     0.99600
C303        C  0.27574618  0.53864562  0.20042837     0.96000
Al304      Al  0.32035228  0.50163384  0.21276196     1.55600
O305        O  0.26006054  0.52266163  0.27453432    -0.75800
C306        C  0.35107702  0.46331454  0.24566752     1.00100
C307        C  0.27935019  0.46473660  0.19756726     0.95000
O308        O  0.26202635  0.47839479  0.21060472    -0.81100
O309        O  0.25760001  0.25982968  0.47732108    -0.80500
C310        C  0.23754767  0.35027886  0.54567270     0.98800
O311        O  0.25821297  0.34695586  0.53099723    -0.69700
O312        O  0.28071994  0.30020605  0.54153204    -0.73200
Al313      Al  0.26934655  0.31680594  0.50896992     1.49000
C314        C  0.28196797  0.27508237  0.54563092     0.94100
O315        O  0.21470737  0.26248401  0.54152459    -0.79500
O316        O  0.19390612  0.30239902  0.47657079    -0.73000
Al317      Al  0.23611687  0.26347825  0.50935160     1.90100
O318        O  0.18645445  0.29530765  0.53142995    -0.72100
O319        O  0.22013932  0.34743309  0.48494622    -0.71900
O320        O  0.21579828  0.33807292  0.54059001    -0.77600
O321        O  0.26187912  0.33498679  0.47610142    -0.75800
O322        O  0.23739529  0.29974197  0.50889918    -1.11900
O323        O  0.28800665  0.29064570  0.48746306    -0.71100
C324        C  0.28058646  0.27041389  0.47379589     0.99600
C325        C  0.19306637  0.27532071  0.54591504     0.96000
Al326      Al  0.20676454  0.31916702  0.50843714     1.55600
O327        O  0.26739971  0.25872663  0.53235006    -0.75800
C328        C  0.24113796  0.34858514  0.47033893     1.00100
C329        C  0.19175604  0.27740564  0.47221249     0.95000
O330        O  0.20472697  0.26033267  0.48621621    -0.81100
O331        O  0.25799046  0.73869244  0.54140772    -0.80500
C332        C  0.23603317  0.64768278  0.47483135     0.98800
O333        O  0.25683443  0.65085061  0.48931527    -0.69700
O334        O  0.28059661  0.69685185  0.47800099    -0.73200
Al335      Al  0.26870305  0.68099220  0.51080058     1.49000
C336        C  0.28230276  0.72190341  0.47360779     0.94100
O337        O  0.21533639  0.73567225  0.47709041    -0.79500
O338        O  0.19390696  0.69754582  0.54318690    -0.73000
Al339      Al  0.23656964  0.73494591  0.50940350     1.90100
O340        O  0.18613940  0.70405529  0.48826882    -0.72100
O341        O  0.21886078  0.65169968  0.53498277    -0.71900
O342        O  0.21458224  0.66055016  0.47957111    -0.77600
O343        O  0.26080503  0.66339410  0.54384047    -0.75800
O344        O  0.23712674  0.69872010  0.51055634    -1.11900
O345        O  0.28781648  0.70705387  0.53196341    -0.71100
C346        C  0.28071443  0.72765686  0.54524726     0.99600
C347        C  0.19331052  0.72335951  0.47313273     0.96000
Al348      Al  0.20606872  0.68004342  0.51142884     1.55600
O349        O  0.26794138  0.73866175  0.48655734    -0.75800
C350        C  0.23988975  0.65000344  0.54942849     1.00100
C351        C  0.19225385  0.72267141  0.54701193     0.95000
O352        O  0.20521792  0.73920473  0.53236958    -0.81100
O353        O  0.26193506  0.53023197  0.75572130    -0.80500
C354        C  0.35265333  0.46342452  0.77777703     0.98800
O355        O  0.34964149  0.47806243  0.75707223    -0.69700
O356        O  0.30344470  0.46631866  0.73376917    -0.73200
Al357      Al  0.31936651  0.49927845  0.74518824     1.49000
C358        C  0.27835160  0.46207105  0.73198747     0.94100
O359        O  0.26442704  0.46667968  0.79925935    -0.79500
O360        O  0.30343139  0.53221427  0.81996046    -0.73000
Al361      Al  0.26551336  0.49854312  0.77753002     1.90100
O362        O  0.29659026  0.47751296  0.82800457    -0.72100
O363        O  0.34901458  0.52385388  0.79459911    -0.71900
O364        O  0.33991100  0.46827337  0.79930183    -0.77600
O365        O  0.33683629  0.53249941  0.75272404    -0.75800
O366        O  0.30175847  0.49938084  0.77685466    -1.11900
O367        O  0.29327569  0.52003278  0.72584959    -0.71100
C368        C  0.27282448  0.53355164  0.73285077     0.99600
C369        C  0.27677264  0.46285771  0.82127860     0.96000
Al370      Al  0.32065677  0.50035061  0.80778902     1.55600
O371        O  0.26162824  0.47518652  0.74632952    -0.75800
C372        C  0.35023580  0.53840651  0.77356468     1.00100
C373        C  0.27836782  0.53645166  0.82156549     0.95000
O374        O  0.26160684  0.52203784  0.80861764    -0.81100
O375        O  0.53362137  0.74618223  0.27162396    -0.80500
C376        C  0.46561550  0.77004118  0.36111323     0.98800
O377        O  0.48017645  0.74919782  0.35861541    -0.69700
O378        O  0.46931944  0.72468918  0.31288417    -0.73200
Al379      Al  0.50197971  0.73663962  0.32895352     1.49000
C380        C  0.46533951  0.72240660  0.28779272     0.94100
O381        O  0.46948531  0.78909359  0.27276816    -0.79500
O382        O  0.53501727  0.81085911  0.31163390    -0.73000
Al383      Al  0.50162698  0.76773597  0.27441325     1.90100
O384        O  0.48033795  0.81880625  0.30405479    -0.72100
O385        O  0.52605935  0.78680737  0.35779727    -0.71900
O386        O  0.47065503  0.79126074  0.34797428    -0.77600
O387        O  0.53486389  0.74469705  0.34670517    -0.75800
O388        O  0.50216520  0.76786254  0.31067006    -1.11900
O389        O  0.52338089  0.71689504  0.30351488    -0.71100
C390        C  0.53719544  0.72365786  0.28313359     0.99600
C391        C  0.46554267  0.81139542  0.28457938     0.96000
Al392      Al  0.50293064  0.79922642  0.32884274     1.55600
O393        O  0.47866648  0.73632026  0.27091340    -0.75800
C394        C  0.54060825  0.76584642  0.35965072     1.00100
C395        C  0.53927765  0.81202689  0.28653595     0.95000
O396        O  0.52479456  0.79891858  0.26997524    -0.81100
O397        O  0.74101640  0.53211778  0.26446891    -0.80500
C398        C  0.65097460  0.46463558  0.24191156     0.98800
O399        O  0.65378671  0.47904854  0.26284786    -0.69700
O400        O  0.70003219  0.46786723  0.28637022    -0.73200
Al401      Al  0.68378702  0.50067007  0.27499968     1.49000
C402        C  0.72515739  0.46379619  0.28803007     0.94100
O403        O  0.73857507  0.46847126  0.22080634    -0.79500
O404        O  0.69917375  0.53432430  0.20087295    -0.73000
Al405      Al  0.73755544  0.50041407  0.24257249     1.90100
O406        O  0.70678854  0.47978551  0.19186021    -0.72100
O407        O  0.65370306  0.52499765  0.22580327    -0.71900
O408        O  0.66374629  0.46979706  0.22050458    -0.77600
O409        O  0.66600898  0.53372927  0.26759385    -0.75800
O410        O  0.70134995  0.50105155  0.24335698    -1.11900
O411        O  0.70971025  0.52176881  0.29435797    -0.71100
C412        C  0.73004174  0.53548367  0.28731044     0.99600
C413        C  0.72622655  0.46469951  0.19876240     0.96000
Al414      Al  0.68244958  0.50211945  0.21242901     1.55600
O415        O  0.74172399  0.47707570  0.27368258    -0.75800
C416        C  0.65245231  0.53951969  0.24684207     1.00100
C417        C  0.72418176  0.53869605  0.19915450     0.95000
O418        O  0.74115799  0.52403673  0.21154559    -0.81100
O419        O  0.74757426  0.74042539  0.47793538    -0.80500
C420        C  0.76549074  0.64992466  0.54648254     0.98800
O421        O  0.74490226  0.65368273  0.53184838    -0.69700
O422        O  0.72361325  0.70097017  0.54253604    -0.73200
Al423      Al  0.73440335  0.68402922  0.50992024     1.49000
C424        C  0.72301667  0.72613733  0.54653516     0.94100
O425        O  0.79025134  0.73694757  0.54216412    -0.79500
O426        O  0.80998680  0.69640773  0.47710198    -0.73000
Al427      Al  0.76892079  0.73645851  0.50998670     1.90100
O428        O  0.81784354  0.70360960  0.53187302    -0.72100
O429        O  0.78272514  0.65207403  0.48606502    -0.71900
O430        O  0.78750369  0.66167580  0.54144505    -0.77600
O431        O  0.74133239  0.66558212  0.47709742    -0.75800
O432        O  0.76675306  0.70027569  0.50966366    -1.11900
O433        O  0.71631134  0.71057794  0.48843208    -0.71100
C434        C  0.72434182  0.73036940  0.47446204     0.99600
C435        C  0.81159466  0.72361939  0.54648024     0.96000
Al436      Al  0.79689347  0.68013753  0.50916892     1.55600
O437        O  0.73779782  0.74207793  0.53298956    -0.75800
C438        C  0.76167641  0.65129854  0.47155307     1.00100
C439        C  0.81279259  0.72133321  0.47269451     0.95000
O440        O  0.80041251  0.73876181  0.48682203    -0.81100
O441        O  0.73862041  0.46932743  0.75539010    -0.80500
C442        C  0.64935685  0.53745753  0.77840825     0.98800
O443        O  0.65136908  0.52253040  0.75774265    -0.69700
O444        O  0.69709944  0.53307162  0.73343778    -0.73200
Al445      Al  0.68102168  0.50048838  0.74544589     1.49000
C446        C  0.72213749  0.53735784  0.73146877     0.94100
O447        O  0.73652797  0.53340217  0.79827491    -0.79500
O448        O  0.69786550  0.46759875  0.81994761    -0.73000
Al449      Al  0.73533566  0.50123304  0.77697640     1.90100
O450        O  0.70531141  0.52221424  0.82791596    -0.72100
O451        O  0.65179960  0.47668348  0.79550222    -0.71900
O452        O  0.66199930  0.53204216  0.79982960    -0.77600
O453        O  0.66313288  0.46761860  0.75349785    -0.75800
O454        O  0.69911376  0.50040975  0.77680702    -1.11900
O455        O  0.70664492  0.47904126  0.72600120    -0.71100
C456        C  0.72729260  0.46565497  0.73277768     0.99600
C457        C  0.72459878  0.53723916  0.82053229     0.96000
Al458      Al  0.68073858  0.49969142  0.80807650     1.55600
O459        O  0.73898687  0.52422971  0.74557938    -0.75800
C460        C  0.64998407  0.46205642  0.77459199     1.00100
C461        C  0.72300394  0.46367117  0.82152857     0.95000
O462        O  0.73956495  0.47810924  0.80831611    -0.81100
O463        O  0.46842699  0.74575677  0.74972417    -0.80500
C464        C  0.53899425  0.76570312  0.66097011     0.98800
O465        O  0.52370359  0.74541167  0.66360497    -0.69700
O466        O  0.53310187  0.72243956  0.71043267    -0.73200
Al467      Al  0.50104274  0.73436471  0.69331615     1.49000
C468        C  0.53716613  0.72155042  0.73560329     0.94100
O469        O  0.53272680  0.78842290  0.74924260    -0.79500
O470        O  0.46971182  0.81031585  0.70736495    -0.73000
Al471      Al  0.50056459  0.76716093  0.74697555     1.90100
O472        O  0.52443760  0.81678896  0.71608063    -0.72100
O473        O  0.47905121  0.78412588  0.66241459    -0.71900
O474        O  0.53431913  0.78733619  0.67353693    -0.77600
O475        O  0.46871106  0.74263353  0.67461999    -0.75800
O476        O  0.50111911  0.76618230  0.71069873    -1.11900
O477        O  0.47884305  0.71559308  0.71882312    -0.71100
C478        C  0.46486109  0.72292963  0.73886468     0.99600
C479        C  0.53800185  0.80995859  0.73661851     0.96000
Al480      Al  0.50183321  0.79694681  0.69148357     1.55600
O481        O  0.52355580  0.73595951  0.75185564    -0.75800
C482        C  0.46399413  0.76349280  0.66078650     1.00100
C483        C  0.46413888  0.81189143  0.73218792     0.95000
O484        O  0.47727585  0.79849278  0.74963607    -0.81100
O485        O  0.53220743  0.25447957  0.75196219    -0.80500
C486        C  0.46578555  0.23331327  0.66051570     0.98800
O487        O  0.48068925  0.25378456  0.66369014    -0.69700
O488        O  0.46843208  0.27646785  0.70995443    -0.73200
Al489      Al  0.50154587  0.26532779  0.69440938     1.49000
C490        C  0.46394292  0.27815708  0.73500526     0.94100
O491        O  0.46831234  0.21150799  0.74892757    -0.79500
O492        O  0.53357943  0.18989674  0.71028313    -0.73000
Al493      Al  0.50036290  0.23285071  0.74811778     1.90100
O494        O  0.47865968  0.18288943  0.71646342    -0.72100
O495        O  0.52612311  0.21594025  0.66487482    -0.71900
O496        O  0.47031284  0.21174738  0.67324994    -0.77600
O497        O  0.53485382  0.25777056  0.67730272    -0.75800
O498        O  0.50139557  0.23360322  0.71186614    -1.11900
O499        O  0.52201650  0.28463018  0.72092956    -0.71100
C500        C  0.53545454  0.27751864  0.74141635     0.99600
C501        C  0.46396713  0.18983473  0.73619074     0.96000
Al502      Al  0.50210875  0.20278331  0.69280330     1.55600
O503        O  0.47714229  0.26410327  0.75188749    -0.75800
C504        C  0.54068403  0.23697722  0.66379509     1.00100
C505        C  0.53761771  0.18808900  0.73537836     0.95000
O506        O  0.52354000  0.20150011  0.75209009    -0.81100
O507        O  0.74563350  0.26220281  0.54254906    -0.94900
C508        C  0.76728951  0.35137207  0.47324918     0.98800
O509        O  0.74626004  0.34821053  0.48743121    -0.69700
O510        O  0.72334983  0.30152075  0.47741130    -0.73200
Al511      Al  0.73452841  0.31861628  0.50982661     1.49000
C512        C  0.72204529  0.27633990  0.47368639     0.94100
O513        O  0.78894393  0.26340075  0.47869786    -0.79500
O514        O  0.80925866  0.30385118  0.54359029    -0.73000
Al515      Al  0.76728933  0.26502021  0.51064863     1.90100
O516        O  0.81751506  0.29593927  0.48890650    -0.72100
O517        O  0.78376902  0.34907297  0.53416686    -0.71900
O518        O  0.78885699  0.33905122  0.47883133    -0.77600
O519        O  0.74169902  0.33737139  0.54240773    -0.75800
O520        O  0.76633208  0.30128929  0.51058222    -1.11900
O521        O  0.71546995  0.29304340  0.53169291    -0.71100
C522        C  0.72282186  0.27318112  0.54593244     0.99600
C523        C  0.81085188  0.27586170  0.47454782     0.96000
Al524      Al  0.79715486  0.32037007  0.51129707     1.55600
O525        O  0.73623094  0.26014360  0.48751666    -0.75800
C526        C  0.76248563  0.35083526  0.54827005     1.00100
C527        C  0.81120367  0.27887597  0.54811816     0.95000
O528        O  0.79840402  0.26180112  0.53400218    -0.81100
C529        C  0.66119638  0.25063253  0.59528230     0.18300
C530        C  0.65361976  0.26756049  0.61679885    -0.10800
C531        C  0.62888266  0.26351846  0.63006425    -0.11700
C532        C  0.61154277  0.24257733  0.62183801     0.19900
C533        C  0.61923207  0.22546312  0.60051421    -0.13700
C534        C  0.64398677  0.22950818  0.58724002    -0.12000
C535        C  0.58578555  0.23901662  0.63512928     0.00800
C536        C  0.56465056  0.23728914  0.64730378    -0.32000
C537        C  0.68552855  0.25625195  0.58013592     0.02200
C538        C  0.70409581  0.26280136  0.56563153    -0.33700
H539        H  0.66660466  0.28414333  0.62300539     0.13200
H540        H  0.62313512  0.27690117  0.64650615     0.13100
H541        H  0.60598134  0.20923406  0.59395890     0.12900
H542        H  0.64948991  0.21648154  0.57043747     0.12000
C543        C  0.58220670  0.34061001  0.76537143     0.18300
C544        C  0.57244205  0.35939923  0.78436133    -0.10800
C545        C  0.58542810  0.38445014  0.78761372    -0.11700
C546        C  0.60817236  0.39086063  0.77181329     0.19900
C547        C  0.61814102  0.37189443  0.75315320    -0.13700
C548        C  0.60518979  0.34689242  0.74991653    -0.12000
C549        C  0.62113054  0.41696179  0.77420712     0.00800
C550        C  0.63327092  0.43819651  0.77494171    -0.32000
C551        C  0.56750993  0.31590464  0.76004997     0.02200
C552        C  0.55392961  0.29681917  0.75298471    -0.33700
H553        H  0.55452314  0.35490611  0.79624659     0.13200
H554        H  0.57752243  0.39892782  0.80210778     0.13100
H555        H  0.63569886  0.37659639  0.74081333     0.12900
H556        H  0.61277602  0.33268516  0.73498503     0.12000
C557        C  0.61025792  0.60969445  0.77078378     0.18300
C558        C  0.58601257  0.61635451  0.78396415    -0.10800
C559        C  0.57344142  0.64123646  0.77883749    -0.11700
C560        C  0.58507533  0.65961607  0.76055885     0.19900
C561        C  0.60967157  0.65323972  0.74785401    -0.13700
C562        C  0.62225874  0.62834671  0.75299559    -0.12000
C563        C  0.57060111  0.68389019  0.75328740     0.00800
C564        C  0.55644151  0.70239930  0.74593888    -0.32000
C565        C  0.62238326  0.58343914  0.77475186     0.02200
C566        C  0.63348263  0.56177999  0.77700137    -0.33700
H567        H  0.57656496  0.60212120  0.79775429     0.13200
H568        H  0.55433311  0.64586687  0.78862382     0.13100
H569        H  0.61875947  0.66719290  0.73354067     0.12900
H570        H  0.64102535  0.62342023  0.74270007     0.12000
C571        C  0.75806389  0.39421087  0.61854587     0.18300
C572        C  0.76241395  0.38010411  0.64285880    -0.10800
C573        C  0.75867950  0.39312562  0.66782886    -0.11700
C574        C  0.75058606  0.42032666  0.66859154     0.19900
C575        C  0.74652994  0.43448502  0.64427729    -0.13700
C576        C  0.75024158  0.42147855  0.61934586    -0.12000
C577        C  0.74511111  0.43361278  0.69405280     0.00800
C578        C  0.73828443  0.44686632  0.71345475    -0.32000
C579        C  0.76070211  0.38044893  0.59287023     0.02200
C580        C  0.76201681  0.36789106  0.57189594    -0.33700
H581        H  0.76835055  0.35897229  0.64250578     0.13200
H582        H  0.76172884  0.38191773  0.68646416     0.13100
H583        H  0.74011731  0.45548253  0.64460068     0.12900
H584        H  0.74669188  0.43257353  0.60073068     0.12000
C585        C  0.74449688  0.58193893  0.66611280     0.18300
C586        C  0.74336829  0.56701318  0.64194004    -0.10800
C587        C  0.74893330  0.57956246  0.61712026    -0.11700
C588        C  0.75566639  0.60711633  0.61633427     0.19900
C589        C  0.75690052  0.62203533  0.64050885    -0.13700
C590        C  0.75132328  0.60947893  0.66534818    -0.12000
C591        C  0.76041484  0.62035737  0.59073944     0.00800
C592        C  0.76337538  0.63279345  0.56989641    -0.32000
C593        C  0.73807478  0.56889488  0.69145509     0.02200
C594        C  0.73156505  0.55590232  0.71112716    -0.33700
H595        H  0.73800698  0.54573269  0.64227096     0.13200
H596        H  0.74776908  0.56786121  0.59857301     0.13100
H597        H  0.76194299  0.64339380  0.64012386     0.12900
H598        H  0.75215398  0.62124780  0.68387023     0.12000
C599        C  0.65962932  0.75044223  0.59281534     0.18300
C600        C  0.65666583  0.74426965  0.62038032    -0.10800
C601        C  0.63171891  0.74834079  0.63326999    -0.11700
C602        C  0.60959122  0.75854888  0.61865467     0.19900
C603        C  0.61267518  0.76513654  0.59119725    -0.13700
C604        C  0.63762690  0.76107630  0.57831008    -0.12000
C605        C  0.58369712  0.76173121  0.63181235     0.00800
C606        C  0.56264457  0.76379934  0.64409774    -0.32000
C607        C  0.68447105  0.74402057  0.57885053     0.02200
C608        C  0.70353469  0.73681319  0.56533129    -0.33700
H609        H  0.67344504  0.73584418  0.63175095     0.13200
H610        H  0.62957418  0.74317148  0.65450882     0.13100
H611        H  0.59573377  0.77303087  0.57968769     0.12900
H612        H  0.63961376  0.76572406  0.55693469     0.12000
C613        C  0.74936820  0.41956511  0.35313064     0.18300
C614        C  0.75265657  0.43514352  0.37669720    -0.10800
C615        C  0.75804011  0.42254542  0.40155718    -0.11700
C616        C  0.76017477  0.39427238  0.40300302     0.19900
C617        C  0.75730207  0.37872539  0.37936901    -0.13700
C618        C  0.75190190  0.39132375  0.35450810    -0.12000
C619        C  0.76413785  0.38102854  0.42877966     0.00800
C620        C  0.76622245  0.36852100  0.44971740    -0.32000
C621        C  0.74225584  0.43262512  0.32793690     0.02200
C622        C  0.73508484  0.44542432  0.30834221    -0.33700
H623        H  0.75064476  0.45699342  0.37592419     0.13200
H624        H  0.76012025  0.43478819  0.41966440     0.13100
H625        H  0.75881643  0.35684253  0.38023822     0.12900
H626        H  0.74930826  0.37904635  0.33649502     0.12000
C627        C  0.75831537  0.60826674  0.40107036     0.18300
C628        C  0.75861080  0.57991569  0.39985570    -0.10800
C629        C  0.75575744  0.56673691  0.37490048    -0.11700
C630        C  0.75261869  0.58181518  0.35100545     0.19900
C631        C  0.75266070  0.61017860  0.35216953    -0.13700
C632        C  0.75553414  0.62336716  0.37714154    -0.12000
C633        C  0.74751989  0.56799572  0.32576741     0.00800
C634        C  0.74095303  0.55442716  0.30650692    -0.32000
C635        C  0.76013788  0.62190848  0.42684716     0.02200
C636        C  0.76107091  0.63440057  0.44785846    -0.33700
H637        H  0.76067177  0.56802157  0.41820007     0.13200
H638        H  0.75551857  0.54478927  0.37429058     0.13100
H639        H  0.75001676  0.62205575  0.33389113     0.12900
H640        H  0.75520892  0.64530855  0.37784102     0.12000
C641        C  0.61220324  0.76140114  0.40048059     0.18300
C642        C  0.62667743  0.73730308  0.39642645    -0.10800
C643        C  0.65177387  0.73344302  0.40902354    -0.11700
C644        C  0.66265258  0.75368268  0.42571366     0.19900
C645        C  0.64838637  0.77797932  0.42946216    -0.13700
C646        C  0.62324361  0.78185328  0.41682715    -0.12000
C647        C  0.68723815  0.74844705  0.44065099     0.00800
C648        C  0.70588482  0.74164150  0.45495997    -0.32000
C649        C  0.58602444  0.76482036  0.38791782     0.02200
C650        C  0.56462306  0.76612046  0.37612756    -0.33700
H651        H  0.61839955  0.72135801  0.38380245     0.13200
H652        H  0.66244926  0.71446667  0.40616524     0.13100
H653        H  0.65644122  0.79367827  0.44252149     0.12900
H654        H  0.61228556  0.80059738  0.42007784     0.12000
C655        C  0.58360659  0.65990499  0.26072323     0.18300
C656        C  0.56993660  0.63548581  0.26563276    -0.10800
C657        C  0.58295374  0.61069192  0.26127111    -0.11700
C658        C  0.60976005  0.61011368  0.25195558     0.19900
C659        C  0.62343071  0.63453058  0.24687956    -0.13700
C660        C  0.61038685  0.65938106  0.25125808    -0.12000
C661        C  0.62351182  0.58452506  0.24865638     0.00800
C662        C  0.63581998  0.56343114  0.24713532    -0.32000
C663        C  0.57008727  0.68522981  0.26621671     0.02200
C664        C  0.55643528  0.70446380  0.27270607    -0.33700
H665        H  0.54927031  0.63562069  0.27307780     0.13200
H666        H  0.57221890  0.59199975  0.26542734     0.13100
H667        H  0.64422687  0.63435216  0.23982127     0.12900
H668        H  0.62121721  0.67810138  0.24750845     0.12000
C669        C  0.39512576  0.39353452  0.76829336     0.18300
C670        C  0.37925860  0.37005502  0.76619443    -0.10800
C671        C  0.39145156  0.34505344  0.76068551    -0.11700
C672        C  0.41957779  0.34344246  0.75726171     0.19900
C673        C  0.43544040  0.36692614  0.75935846    -0.13700
C674        C  0.42325087  0.39191911  0.76485585    -0.12000
C675        C  0.43231319  0.31798300  0.75089146     0.00800
C676        C  0.44522984  0.29828223  0.74442913    -0.32000
C677        C  0.38233051  0.41928370  0.77321651     0.02200
C678        C  0.36996388  0.44013921  0.77619512    -0.33700
H679        H  0.35746340  0.37111451  0.76864408     0.13200
H680        H  0.37897967  0.32708094  0.75894114     0.13100
H681        H  0.45720156  0.36593124  0.75657535     0.12900
H682        H  0.43569364  0.40994485  0.76625504     0.12000
C683        C  0.39136075  0.61008202  0.76973972     0.18300
C684        C  0.37794268  0.63126349  0.75634960    -0.10800
C685        C  0.39076668  0.65633527  0.75277860    -0.11700
C686        C  0.41708774  0.66042514  0.76263330     0.19900
C687        C  0.43032019  0.63938994  0.77643475    -0.13700
C688        C  0.41750088  0.61431370  0.77999519    -0.12000
C689        C  0.43141911  0.68523809  0.75665995     0.00800
C690        C  0.44541320  0.70408753  0.74968579    -0.32000
C691        C  0.37848013  0.58392445  0.77229670     0.02200
C692        C  0.36659072  0.56254658  0.77343210    -0.33700
H693        H  0.35774171  0.62825662  0.74829107     0.13200
H694        H  0.38039772  0.67230306  0.74185491     0.13100
H695        H  0.45076731  0.64218482  0.78392955     0.12900
H696        H  0.42811865  0.59813039  0.79034549     0.12000
C697        C  0.24986019  0.57901605  0.66882451     0.18300
C698        C  0.24351152  0.60666633  0.66840678    -0.10800
C699        C  0.24017066  0.62006924  0.64362618    -0.11700
C700        C  0.24319285  0.60589238  0.61916829     0.19900
C701        C  0.24930709  0.57818319  0.61959965    -0.13700
C702        C  0.25263123  0.56478494  0.64436553    -0.12000
C703        C  0.24095017  0.62002714  0.59372116     0.00800
C704        C  0.23996512  0.63290854  0.57296541    -0.32000
C705        C  0.25500359  0.56538629  0.69411075     0.02200
C706        C  0.26166398  0.55214828  0.71353459    -0.33700
H707        H  0.24152992  0.61790970  0.68716688     0.13200
H708        H  0.23557948  0.64153840  0.64352616     0.13100
H709        H  0.25183228  0.56704553  0.60083871     0.12900
H710        H  0.25774859  0.54342988  0.64444496     0.12000
C711        C  0.39646109  0.75936835  0.40440794     0.18300
C712        C  0.38927809  0.73216537  0.40813705    -0.10800
C713        C  0.36459714  0.72549943  0.42032015    -0.11700
C714        C  0.34688285  0.74599625  0.42878522     0.19900
C715        C  0.35405718  0.77324949  0.42515691    -0.13700
C716        C  0.37879915  0.77993464  0.41292092    -0.12000
C717        C  0.32196443  0.73885226  0.44218688     0.00800
C718        C  0.30256126  0.73160848  0.45515893    -0.32000
C719        C  0.42159794  0.76582335  0.39106580     0.02200
C720        C  0.44226433  0.76898194  0.37840707    -0.33700
H721        H  0.40273216  0.71610559  0.40155252     0.13200
H722        H  0.35936846  0.70437807  0.42321930     0.13100
H723        H  0.34060479  0.78926320  0.43183309     0.12900
H724        H  0.38410698  0.80103424  0.41005501     0.12000
C725        C  0.34400691  0.75231570  0.59118053     0.18300
C726        C  0.34539382  0.75233439  0.61955018    -0.10800
C727        C  0.37028803  0.75637560  0.63254931    -0.11700
C728        C  0.39393407  0.76036108  0.61726281     0.19900
C729        C  0.39248091  0.76070467  0.58890145    -0.13700
C730        C  0.36759356  0.75668464  0.57590793    -0.12000
C731        C  0.41972278  0.76294536  0.63075762     0.00800
C732        C  0.44063157  0.76385107  0.64341767    -0.32000
C733        C  0.31891386  0.74611987  0.57755078     0.02200
C734        C  0.29977806  0.73892392  0.56412718    -0.33700
H735        H  0.32737015  0.74875818  0.63158084     0.13200
H736        H  0.37117783  0.75594479  0.65449518     0.13100
H737        H  0.41061069  0.76363460  0.57685501     0.12900
H738        H  0.36682159  0.75648918  0.55395275     0.12000
C739        C  0.24552128  0.39269372  0.61620308     0.18300
C740        C  0.25264435  0.37708728  0.63887552    -0.10800
C741        C  0.25754404  0.38956931  0.66390318    -0.11700
C742        C  0.25530976  0.41775719  0.66644625     0.19900
C743        C  0.24787633  0.43334305  0.64384566    -0.13700
C744        C  0.24298562  0.42085762  0.61880793    -0.12000
C745        C  0.26188379  0.43092216  0.69175706     0.00800
C746        C  0.26866949  0.44372534  0.71150297    -0.32000
C747        C  0.24157796  0.37974337  0.59024589     0.02200
C748        C  0.23923370  0.36741062  0.56921329    -0.33700
H749        H  0.25473141  0.35530498  0.63712346     0.13200
H750        H  0.26341550  0.37730245  0.68113385     0.13100
H751        H  0.24622696  0.45517183  0.64549129     0.12900
H752        H  0.23755879  0.43316699  0.60145966     0.12000
C753        C  0.39634265  0.24246668  0.61685740     0.18300
C754        C  0.37264731  0.24601376  0.63217873    -0.10800
C755        C  0.34787409  0.25090022  0.61923429    -0.11700
C756        C  0.34666884  0.25224644  0.59088642     0.19900
C757        C  0.37036247  0.24866845  0.57557521    -0.13700
C758        C  0.39512532  0.24379344  0.58851406    -0.12000
C759        C  0.32149690  0.25837350  0.57737247     0.00800
C760        C  0.30200158  0.26500469  0.56417886    -0.32000
C761        C  0.42188252  0.23801288  0.63033548     0.02200
C762        C  0.44260589  0.23515456  0.64300609    -0.33700
H763        H  0.37336034  0.24517358  0.65411695     0.13200
H764        H  0.32976475  0.25384050  0.63129991     0.13100
H765        H  0.36972670  0.24987782  0.55365051     0.12900
H766        H  0.41329790  0.24123326  0.57645475     0.12000
C767        C  0.42059164  0.65724271  0.26497470     0.18300
C768        C  0.39393902  0.65719675  0.25520025    -0.10800
C769        C  0.38089820  0.63261992  0.24962376    -0.11700
C770        C  0.39444697  0.60798741  0.25378793     0.19900
C771        C  0.42117480  0.60805690  0.26333247    -0.13700
C772        C  0.43420671  0.63261069  0.26889705    -0.12000
C773        C  0.38057454  0.58269599  0.24924499     0.00800
C774        C  0.36791246  0.56197239  0.24643788    -0.32000
C775        C  0.43395284  0.68235892  0.27159944     0.02200
C776        C  0.44693671  0.70195846  0.27831988    -0.33700
H777        H  0.38319197  0.67608242  0.25214007     0.13200
H778        H  0.36018445  0.63281105  0.24235731     0.13100
H779        H  0.43181512  0.58916550  0.26674111     0.12900
H780        H  0.45480294  0.63238494  0.27649805     0.12000
C781        C  0.24404749  0.60313087  0.40601505     0.18300
C782        C  0.26840529  0.58927374  0.40154324    -0.10800
C783        C  0.27339704  0.57706462  0.37646693    -0.11700
C784        C  0.25410192  0.57870148  0.35568980     0.19900
C785        C  0.22963974  0.59240338  0.36019062    -0.13700
C786        C  0.22464263  0.60464555  0.38531430    -0.12000
C787        C  0.25952914  0.56587519  0.33004278     0.00800
C788        C  0.26606846  0.55336497  0.31009193    -0.32000
C789        C  0.23964981  0.61687535  0.43136358     0.02200
C790        C  0.23727781  0.62988856  0.45190138    -0.33700
H791        H  0.28361242  0.58812045  0.41733379     0.13200
H792        H  0.29233831  0.56643380  0.37323968     0.13100
H793        H  0.21454509  0.59370560  0.34431166     0.12900
H794        H  0.20580806  0.61546296  0.38851580     0.12000
C795        C  0.24512883  0.38918378  0.39835415     0.18300
C796        C  0.26841636  0.38437140  0.38278758    -0.10800
C797        C  0.27155730  0.39683410  0.35748806    -0.11700
C798        C  0.25139901  0.41416268  0.34748831     0.19900
C799        C  0.22788493  0.41864931  0.36284174    -0.13700
C800        C  0.22473208  0.40615498  0.38817965    -0.12000
C801        C  0.25607814  0.42913785  0.32276862     0.00800
C802        C  0.26236411  0.44371830  0.30411894    -0.32000
C803        C  0.24241057  0.37670097  0.42471219     0.02200
C804        C  0.24128102  0.36498022  0.44620187    -0.33700
H805        H  0.28430987  0.37125687  0.39036593     0.13200
H806        H  0.28995103  0.39340108  0.34598590     0.13100
H807        H  0.21226674  0.43221298  0.35548850     0.12900
H808        H  0.20660121  0.41000062  0.39995859     0.12000
C809        C  0.60919326  0.24301139  0.40085745     0.18300
C810        C  0.61147948  0.23863386  0.42882357    -0.10800
C811        C  0.63623108  0.24309954  0.44192311    -0.11700
C812        C  0.65884113  0.25195407  0.42713879     0.19900
C813        C  0.65668435  0.25589919  0.39909264    -0.13700
C814        C  0.63192590  0.25141580  0.38598449    -0.12000
C815        C  0.68355052  0.25870166  0.44116889     0.00800
C816        C  0.70251079  0.26595363  0.45479435    -0.32000
C817        C  0.58346534  0.23956147  0.38745175     0.02200
C818        C  0.56251468  0.23740215  0.37502085    -0.33700
H819        H  0.59406833  0.23216533  0.44054247     0.13200
H820        H  0.63760405  0.24015191  0.46364451     0.13100
H821        H  0.67395306  0.26290731  0.38747385     0.12900
H822        H  0.63040086  0.25488621  0.36435234     0.12000
C823        C  0.34445893  0.24751091  0.42798589     0.18300
C824        C  0.34611862  0.23088864  0.40499405    -0.10800
C825        C  0.37097932  0.22754492  0.39161296    -0.11700
C826        C  0.39425489  0.24079938  0.40118026     0.19900
C827        C  0.39263060  0.25699954  0.42442758    -0.13700
C828        C  0.36784940  0.26032664  0.43777214    -0.12000
C829        C  0.41949318  0.23893271  0.38652168     0.00800
C830        C  0.44026215  0.23858649  0.37356893    -0.32000
C831        C  0.31890671  0.25233353  0.44139090     0.02200
C832        C  0.29957599  0.25910517  0.45480438    -0.33700
H833        H  0.32820189  0.22086694  0.39722116     0.13200
H834        H  0.37196291  0.21501372  0.37360339     0.13100
H835        H  0.41042181  0.26741076  0.43198408     0.12900
H836        H  0.36684267  0.27322988  0.45552121     0.12000
C837        C  0.58422642  0.34458870  0.26089005     0.18300
C838        C  0.59535013  0.34979214  0.23525550    -0.10800
C839        C  0.60728467  0.37496851  0.22982913    -0.11700
C840        C  0.60798539  0.39499200  0.24999303     0.19900
C841        C  0.59675431  0.38977751  0.27552865    -0.13700
C842        C  0.58488254  0.36467464  0.28094619    -0.12000
C843        C  0.62123441  0.42047764  0.24513847     0.00800
C844        C  0.63373652  0.44131576  0.24289897    -0.32000
C845        C  0.57119348  0.31915751  0.26666294     0.02200
C846        C  0.55810036  0.29968387  0.27342450    -0.33700
H847        H  0.59478412  0.33446551  0.21954628     0.13200
H848        H  0.61605874  0.37875950  0.21005113     0.13100
H849        H  0.59732387  0.40505508  0.29129434     0.12900
H850        H  0.57618185  0.36093148  0.30077011     0.12000
C851        C  0.42196165  0.34335032  0.25404480     0.18300
C852        C  0.43673078  0.36763868  0.25339762    -0.10800
C853        C  0.42336869  0.39246607  0.25011991    -0.11700
C854        C  0.39510778  0.39322392  0.24745445     0.19900
C855        C  0.38035927  0.36891004  0.24767078    -0.13700
C856        C  0.39373107  0.34406244  0.25096851    -0.12000
C857        C  0.38112401  0.41889666  0.24556303     0.00800
C858        C  0.36836759  0.43981127  0.24503016    -0.32000
C859        C  0.43575180  0.31811525  0.25966015     0.02200
C860        C  0.44905605  0.29877448  0.26669136    -0.33700
H861        H  0.45853861  0.36742467  0.25594981     0.13200
H862        H  0.43502054  0.41107008  0.25010145     0.13100
H863        H  0.35849097  0.36919594  0.24573589     0.12900
H864        H  0.38202954  0.32550308  0.25162305     0.12000
C865        C  0.59890885  0.86230476  0.75760182     0.18300
C866        C  0.62468690  0.85981846  0.74582520    -0.10800
C867        C  0.64456898  0.87959583  0.75050818    -0.11700
C868        C  0.63883327  0.90205300  0.76697905     0.19900
C869        C  0.61317509  0.90432898  0.77903357    -0.13700
C870        C  0.59331414  0.88457153  0.77435659    -0.12000
C871        C  0.65901872  0.92290453  0.77139645     0.00800
C872        C  0.67505271  0.94089319  0.77604641    -0.32000
C873        C  0.57788070  0.84272527  0.75161895     0.02200
C874        C  0.55982978  0.82725206  0.74555088    -0.33700
H875        H  0.62931081  0.84277398  0.73277059     0.13200
H876        H  0.66430212  0.87750180  0.74109336     0.13100
H877        H  0.60843468  0.92151856  0.79185596     0.12900
H878        H  0.57349169  0.88683516  0.78354576     0.12000
C879        C  0.59656715  0.13361771  0.75553725     0.18300
C880        C  0.62073771  0.14105483  0.76847955    -0.10800
C881        C  0.64111135  0.12176940  0.77286421    -0.11700
C882        C  0.63748314  0.09492344  0.76428132     0.19900
C883        C  0.61334119  0.08750203  0.75127717    -0.13700
C884        C  0.59297315  0.10677973  0.74689676    -0.12000
C885        C  0.65804138  0.07480249  0.76968164     0.00800
C886        C  0.67440478  0.05756002  0.77555953    -0.32000
C887        C  0.57572732  0.15356746  0.75052767     0.02200
C888        C  0.55831437  0.16983036  0.74483749    -0.33700
H889        H  0.62383105  0.16172941  0.77516734     0.13200
H890        H  0.65960949  0.12775501  0.78305286     0.13100
H891        H  0.61021082  0.06680799  0.74465449     0.12900
H892        H  0.57444450  0.10076435  0.73677725     0.12000
C893        C  0.75421681  0.36232556  0.10733783     0.18300
C894        C  0.72822533  0.37354377  0.10987745    -0.10800
C895        C  0.72318256  0.39378255  0.12919420    -0.11700
C896        C  0.74408959  0.40299963  0.14612849     0.19900
C897        C  0.76998876  0.39154800  0.14380078    -0.13700
C898        C  0.77502805  0.37131289  0.12449606    -0.12000
C899        C  0.73905219  0.42451345  0.16544640     0.00800
C900        C  0.73404573  0.44278863  0.18104063    -0.32000
C901        C  0.75988289  0.34240678  0.08654183     0.02200
C902        C  0.76585465  0.32667293  0.06867974    -0.33700
H903        H  0.71194973  0.36688019  0.09672928     0.13200
H904        H  0.70306047  0.40243062  0.13073676     0.13100
H905        H  0.78635188  0.39844559  0.15671716     0.12900
H906        H  0.79523332  0.36290335  0.12273505     0.12000
C907        C  0.75647247  0.36510527  0.91443690     0.18300
C908        C  0.72961356  0.37243366  0.90889750    -0.10800
C909        C  0.72400194  0.39222058  0.88935614    -0.11700
C910        C  0.74520758  0.40481931  0.87522530     0.19900
C911        C  0.77208429  0.39748468  0.88074894    -0.13700
C912        C  0.77769898  0.37768241  0.90030040    -0.12000
C913        C  0.73923188  0.42542851  0.85535126     0.00800
C914        C  0.73279804  0.44280610  0.83935937    -0.32000
C915        C  0.76233499  0.34506303  0.93489783     0.02200
C916        C  0.76834697  0.32894763  0.95229984    -0.33700
H917        H  0.71303917  0.36294062  0.91973718     0.13200
H918        H  0.70314954  0.39775653  0.88532842     0.13100
H919        H  0.78866179  0.40710975  0.87003043     0.12900
H920        H  0.79855633  0.37225856  0.90446296     0.12000
C921        C  0.75123993  0.15989708  0.92504956     0.18300
C922        C  0.76382659  0.15547887  0.89994758    -0.10800
C923        C  0.76044168  0.13074425  0.88643493    -0.11700
C924        C  0.74451166  0.11021122  0.89795809     0.19900
C925        C  0.73150258  0.11481234  0.92280527    -0.13700
C926        C  0.73488213  0.13955561  0.93631734    -0.12000
C927        C  0.74221772  0.08426753  0.88459465     0.00800
C928        C  0.74129512  0.06295909  0.87255408    -0.32000
C929        C  0.75681159  0.18429315  0.94024862     0.02200
C930        C  0.76338084  0.20298085  0.95465755    -0.33700
H931        H  0.77670613  0.17091343  0.89110625     0.13200
H932        H  0.77062050  0.12745852  0.86724589     0.13100
H933        H  0.71914619  0.09912996  0.93194712     0.12900
H934        H  0.72522045  0.14260209  0.95580888     0.12000
C935        C  0.90524929  0.75024522  0.64665002     0.18300
C936        C  0.88468236  0.76931147  0.64208127    -0.10800
C937        C  0.86477995  0.76445280  0.62243803    -0.11700
C938        C  0.86531408  0.74049046  0.60719758     0.19900
C939        C  0.88574179  0.72130231  0.61193231    -0.13700
C940        C  0.90565250  0.72616424  0.63157682    -0.12000
C941        C  0.84532747  0.73578810  0.58633844     0.00800
C942        C  0.82937690  0.73107185  0.56836251    -0.32000
C943        C  0.92632072  0.75585434  0.66617155     0.02200
C944        C  0.94415203  0.76180295  0.68186710    -0.33700
H945        H  0.88418260  0.78805184  0.65352699     0.13200
H946        H  0.84914525  0.77946480  0.61897320     0.13100
H947        H  0.88641597  0.70270035  0.60026821     0.12900
H948        H  0.92147027  0.71129504  0.63482593     0.12000
C949        C  0.09995893  0.75390692  0.64660764     0.18300
C950        C  0.10952391  0.72753335  0.64228959    -0.10800
C951        C  0.12928080  0.72262902  0.62252002    -0.11700
C952        C  0.13959052  0.74405611  0.60695854     0.19900
C953        C  0.13023615  0.77048367  0.61146061    -0.13700
C954        C  0.11047754  0.77539153  0.63124558    -0.12000
C955        C  0.15913951  0.73863924  0.58591890     0.00800
C956        C  0.17475985  0.73245057  0.56813332    -0.32000
C957        C  0.07887968  0.75892592  0.66622868     0.02200
C958        C  0.06084067  0.76447577  0.68180351    -0.33700
H959        H  0.10153140  0.71076376  0.65398566     0.13200
H960        H  0.13631323  0.70210197  0.61917572     0.13100
H961        H  0.13799281  0.78719953  0.59952861     0.12900
H962        H  0.10320568  0.79587016  0.63437174     0.12000
C963        C  0.84472338  0.91488222  0.76023106     0.18300
C964        C  0.86357402  0.92706834  0.74277571    -0.10800
C965        C  0.88842116  0.91441238  0.73750413    -0.11700
C966        C  0.89454595  0.88952255  0.74971178     0.19900
C967        C  0.87555985  0.87719531  0.76690324    -0.13700
C968        C  0.85073523  0.88984729  0.77217901    -0.12000
C969        C  0.92037678  0.87667822  0.74512821     0.00800
C970        C  0.94135929  0.86435826  0.74270907    -0.32000
C971        C  0.82011026  0.92896676  0.76723373     0.02200
C972        C  0.80117149  0.94273512  0.77428346    -0.33700
H973        H  0.85924418  0.94653637  0.73360444     0.13200
H974        H  0.90293093  0.92415574  0.72421000     0.13100
H975        H  0.88008624  0.85796705  0.77647910     0.12900
H976        H  0.83644860  0.88033693  0.78588024     0.12000
C977        C  0.40241352  0.13731715  0.75315590     0.18300
C978        C  0.37759809  0.14500232  0.76469412    -0.10800
C979        C  0.35719447  0.12567473  0.76879874    -0.11700
C980        C  0.36149815  0.09858972  0.76132890     0.19900
C981        C  0.38624052  0.09099679  0.74963269    -0.13700
C982        C  0.40660613  0.11028262  0.74554662    -0.12000
C983        C  0.34113112  0.07829288  0.76663061     0.00800
C984        C  0.32537836  0.06040011  0.77216464    -0.32000
C985        C  0.42357878  0.15701253  0.74882930     0.02200
C986        C  0.44185649  0.17254194  0.74397942    -0.33700
H987        H  0.37407836  0.16585504  0.77060253     0.13200
H988        H  0.33819928  0.13178573  0.77797858     0.13100
H989        H  0.38987451  0.07011634  0.74388690     0.12900
H990        H  0.42566588  0.10409246  0.73654996     0.12000
C991        C  0.40411514  0.86576471  0.75086531     0.18300
C992        C  0.38823034  0.86444121  0.77439678    -0.10800
C993        C  0.36849452  0.88422685  0.77941848    -0.11700
C994        C  0.36447916  0.90544904  0.76093462     0.19900
C995        C  0.38024449  0.90666949  0.73731658    -0.13700
C996        C  0.39997369  0.88688429  0.73229369    -0.12000
C997        C  0.34473115  0.92629142  0.76663978     0.00800
C998        C  0.32877192  0.94382748  0.77277930    -0.32000
C999        C  0.42489767  0.84577159  0.74584741     0.02200
C1000       C  0.44269152  0.82979218  0.74056741    -0.33700
H1001       H  0.39121778  0.84825509  0.78892125     0.13200
H1002       H  0.35651465  0.88309096  0.79779663     0.13100
H1003       H  0.37742975  0.92299124  0.72291024     0.12900
H1004       H  0.41211822  0.88815781  0.71403241     0.12000
C1005       C  0.16013308  0.91656246  0.75377742     0.18300
C1006       C  0.15866807  0.88857271  0.75835619    -0.10800
C1007       C  0.13400544  0.87488746  0.75511092    -0.11700
C1008       C  0.11065424  0.88911458  0.74733006     0.19900
C1009       C  0.11227015  0.91698600  0.74219002    -0.13700
C1010       C  0.13691745  0.93065639  0.74541397    -0.12000
C1011       C  0.08492544  0.87528940  0.74565770     0.00800
C1012       C  0.06381607  0.86289631  0.74524071    -0.32000
C1013       C  0.18466579  0.93131920  0.75975392     0.02200
C1014       C  0.20326746  0.94554655  0.76685971    -0.33700
H1015       H  0.17638908  0.87747027  0.76503133     0.13200
H1016       H  0.13302251  0.85333918  0.75918994     0.13100
H1017       H  0.09439027  0.92823200  0.73621695     0.12900
H1018       H  0.13772048  0.95233194  0.74201673     0.12000
C1019       C  0.75499269  0.63642317  0.91400676     0.18300
C1020       C  0.72848953  0.63280581  0.90444250    -0.10800
C1021       C  0.72307300  0.61336913  0.88445869    -0.11700
C1022       C  0.74411909  0.59742781  0.87390740     0.19900
C1023       C  0.77062341  0.60112921  0.88339617    -0.13700
C1024       C  0.77603687  0.62055382  0.90336533    -0.12000
C1025       C  0.73839797  0.57679482  0.85396166     0.00800
C1026       C  0.73288225  0.55898629  0.83808839    -0.32000
C1027       C  0.76066443  0.65612986  0.93489840     0.02200
C1028       C  0.76648812  0.67206011  0.95257121    -0.33700
H1029       H  0.71202721  0.64489033  0.91251644     0.13200
H1030       H  0.70246490  0.61064264  0.87737601     0.13100
H1031       H  0.78705400  0.58888332  0.87550110     0.12900
H1032       H  0.79661108  0.62310347  0.91060864     0.12000
C1033       C  0.75476526  0.63975992  0.10852201     0.18300
C1034       C  0.77619839  0.62694870  0.12204358    -0.10800
C1035       C  0.77089270  0.60718021  0.14164027    -0.11700
C1036       C  0.74411659  0.60012407  0.14782657     0.19900
C1037       C  0.72263232  0.61321849  0.13461046    -0.13700
C1038       C  0.72794489  0.63300689  0.11498053    -0.12000
C1039       C  0.73870778  0.57881295  0.16699652     0.00800
C1040       C  0.73321767  0.56050607  0.18221351    -0.32000
C1041       C  0.76052218  0.65899912  0.08735190     0.02200
C1042       C  0.76699137  0.67407080  0.06923215    -0.33700
H1043       H  0.79701139  0.63196686  0.11715670     0.13200
H1044       H  0.78763736  0.59715577  0.15167772     0.13100
H1045       H  0.70183359  0.60786992  0.13920631     0.12900
H1046       H  0.71122204  0.64272751  0.10461157     0.12000
C1047       C  0.91919718  0.75032118  0.85293739     0.18300
C1048       C  0.89084342  0.74947380  0.85439499    -0.10800
C1049       C  0.87800957  0.74424239  0.87920050    -0.11700
C1050       C  0.89345915  0.73985125  0.90267177     0.19900
C1051       C  0.92179383  0.74043169  0.90113100    -0.13700
C1052       C  0.93461149  0.74564475  0.87635591    -0.12000
C1053       C  0.88022374  0.73567074  0.92842708     0.00800
C1054       C  0.86814455  0.73329438  0.94959224    -0.32000
C1055       C  0.93267796  0.75710845  0.82786826     0.02200
C1056       C  0.94600289  0.76398462  0.80850957    -0.33700
H1057       H  0.87869243  0.75318877  0.83649118     0.13200
H1058       H  0.85607885  0.74395037  0.88014710     0.13100
H1059       H  0.93395864  0.73718302  0.91911620     0.12900
H1060       H  0.95653636  0.74638354  0.87553134     0.12000
C1061       C  0.75541096  0.84254526  0.92516749     0.18300
C1062       C  0.73610456  0.86031904  0.93611870    -0.10800
C1063       C  0.73106503  0.88533310  0.92367524    -0.11700
C1064       C  0.74536409  0.89271707  0.90024997     0.19900
C1065       C  0.76430518  0.87472774  0.88905481    -0.13700
C1066       C  0.76934189  0.84974543  0.90148624    -0.12000
C1067       C  0.74106495  0.91879732  0.88775923     0.00800
C1068       C  0.73869850  0.93996967  0.87572289    -0.32000
C1069       C  0.76228370  0.81789852  0.93928308     0.02200
C1070       C  0.76924198  0.79885464  0.95296302    -0.33700
H1071       H  0.72533485  0.85506297  0.95452739     0.13200
H1072       H  0.71634515  0.89902043  0.93250242     0.13100
H1073       H  0.77545402  0.88017933  0.87092700     0.12900
H1074       H  0.78443474  0.83628952  0.89292708     0.12000
C1075       C  0.14048352  0.74136513  0.41170989     0.18300
C1076       C  0.12495717  0.72004233  0.40107976    -0.10800
C1077       C  0.10529746  0.72513273  0.38119379    -0.11700
C1078       C  0.10099287  0.75159613  0.37175750     0.19900
C1079       C  0.11671782  0.77285524  0.38219450    -0.13700
C1080       C  0.13636222  0.76776817  0.40207398    -0.12000
C1081       C  0.07993612  0.75717841  0.35209058     0.00800
C1082       C  0.06190853  0.76291768  0.33646309    -0.32000
C1083       C  0.16011129  0.73621867  0.43289928     0.02200
C1084       C  0.17580737  0.73116474  0.45106131    -0.33700
H1085       H  0.12786734  0.69952963  0.40834945     0.13200
H1086       H  0.09327708  0.70849488  0.37339764     0.13100
H1087       H  0.11359224  0.79341945  0.37517064     0.12900
H1088       H  0.14814848  0.78445996  0.41010733     0.12000
C1089       C  0.86690862  0.74070524  0.41306856     0.18300
C1090       C  0.87075805  0.72226760  0.39175561    -0.10800
C1091       C  0.89054822  0.72718767  0.37196175    -0.11700
C1092       C  0.90662187  0.75056751  0.37340942     0.19900
C1093       C  0.90266852  0.76903060  0.39465254    -0.13700
C1094       C  0.88290945  0.76411632  0.41441819    -0.12000
C1095       C  0.92729694  0.75577517  0.35335882     0.00800
C1096       C  0.94498513  0.76196438  0.33759129    -0.32000
C1097       C  0.84702656  0.73529792  0.43385955     0.02200
C1098       C  0.83096282  0.72982858  0.45152358    -0.33700
H1099       H  0.85857615  0.70404454  0.39052729     0.13200
H1100       H  0.89338263  0.71275738  0.35566095     0.13100
H1101       H  0.91495255  0.78717725  0.39600153     0.12900
H1102       H  0.88021630  0.77847840  0.43080474     0.12000
C1103       C  0.89182615  0.73853594  0.12011564     0.18300
C1104       C  0.87721862  0.74473977  0.14373700    -0.10800
C1105       C  0.89075441  0.74794649  0.16850554    -0.11700
C1106       C  0.91896881  0.74489385  0.16977431     0.19900
C1107       C  0.93347126  0.73824386  0.14624639    -0.13700
C1108       C  0.91996199  0.73506508  0.12151631    -0.12000
C1109       C  0.93348911  0.75050503  0.19452210     0.00800
C1110       C  0.94781933  0.75725483  0.21316828    -0.32000
C1111       C  0.87811024  0.73672449  0.09433319     0.02200
C1112       C  0.86600101  0.73617240  0.07305714    -0.33700
H1113       H  0.85545596  0.74755794  0.14291170     0.13200
H1114       H  0.87933132  0.75331708  0.18647955     0.13100
H1115       H  0.95531664  0.73606797  0.14691049     0.12900
H1116       H  0.93150090  0.73036335  0.10342932     0.12000
C1117       C  0.90493594  0.24618408  0.37529899     0.18300
C1118       C  0.88020775  0.25820838  0.36810366    -0.10800
C1119       C  0.86032091  0.26298765  0.38786199    -0.11700
C1120       C  0.86498366  0.25573665  0.41496545     0.19900
C1121       C  0.88965067  0.24359017  0.42211791    -0.13700
C1122       C  0.90951995  0.23881839  0.40237936    -0.12000
C1123       C  0.84489082  0.26146789  0.43555566     0.00800
C1124       C  0.82882507  0.26725610  0.45316860    -0.32000
C1125       C  0.92556355  0.24118602  0.35502884     0.02200
C1126       C  0.94325226  0.23598148  0.33883203    -0.33700
H1127       H  0.87633466  0.26395895  0.34725960     0.13200
H1128       H  0.84139858  0.27247162  0.38203867     0.13100
H1129       H  0.89359294  0.23795538  0.44298346     0.12900
H1130       H  0.92849006  0.22945812  0.40825050     0.12000
C1131       C  0.09765555  0.24730038  0.37374268     0.18300
C1132       C  0.12169849  0.26074074  0.36679464    -0.10800
C1133       C  0.14145795  0.26566908  0.38657314    -0.11700
C1134       C  0.13729879  0.25712420  0.41337442     0.19900
C1135       C  0.11323396  0.24372755  0.42029969    -0.13700
C1136       C  0.09349510  0.23880928  0.40054520    -0.12000
C1137       C  0.15738062  0.26266322  0.43388383     0.00800
C1138       C  0.17358989  0.26841807  0.45128799    -0.32000
C1139       C  0.07735955  0.24173349  0.35347351     0.02200
C1140       C  0.05982139  0.23561258  0.33756358    -0.33700
H1141       H  0.12517403  0.26736503  0.34614069     0.13200
H1142       H  0.15991554  0.27615931  0.38099622     0.13100
H1143       H  0.10971100  0.23713577  0.44095776     0.12900
H1144       H  0.07501876  0.22836458  0.40615452     0.12000
C1145       C  0.91771934  0.24967999  0.16763842     0.18300
C1146       C  0.88985769  0.24539517  0.16436707    -0.10800
C1147       C  0.87763769  0.25026957  0.13924360    -0.11700
C1148       C  0.89321962  0.25939504  0.11728121     0.19900
C1149       C  0.92102691  0.26396129  0.12063607    -0.13700
C1150       C  0.93324228  0.25910153  0.14575975    -0.12000
C1151       C  0.88065066  0.26339784  0.09124962     0.00800
C1152       C  0.86856663  0.26575615  0.07014046    -0.32000
C1153       C  0.93083035  0.24296406  0.19282174     0.02200
C1154       C  0.94404346  0.23603656  0.21216575    -0.33700
H1155       H  0.87770281  0.23792841  0.18106045     0.13200
H1156       H  0.85612019  0.24661019  0.13684703     0.13100
H1157       H  0.93327885  0.27094287  0.10380344     0.12900
H1158       H  0.95485197  0.26228791  0.14801549     0.12000
C1159       C  0.90584746  0.24923445  0.64585126     0.18300
C1160       C  0.89070924  0.22765302  0.63524667    -0.10800
C1161       C  0.87057782  0.23252505  0.61587384    -0.11700
C1162       C  0.86549832  0.25901246  0.60701865     0.19900
C1163       C  0.88061447  0.28058852  0.61765440    -0.13700
C1164       C  0.90074433  0.27571689  0.63701833    -0.12000
C1165       C  0.84519037  0.26415314  0.58668945     0.00800
C1166       C  0.82902608  0.26987516  0.56926990    -0.32000
C1167       C  0.92684393  0.24403464  0.66544358     0.02200
C1168       C  0.94451010  0.23816215  0.68127375    -0.33700
H1169       H  0.89454820  0.20707721  0.64186751     0.13200
H1170       H  0.85909661  0.21568144  0.60773596     0.13100
H1171       H  0.87692231  0.30114192  0.61088422     0.12900
H1172       H  0.91237021  0.29253808  0.64499671     0.12000
C1173       C  0.10001127  0.24780224  0.64681210     0.18300
C1174       C  0.10785030  0.22691439  0.62917626    -0.10800
C1175       C  0.12767119  0.23152130  0.60933964    -0.11700
C1176       C  0.13986155  0.25707056  0.60695851     0.19900
C1177       C  0.13219167  0.27791182  0.62473279    -0.13700
C1178       C  0.11235463  0.27330389  0.64457940    -0.12000
C1179       C  0.15959527  0.26214955  0.58584168     0.00800
C1180       C  0.17538031  0.26732915  0.56778198    -0.32000
C1181       C  0.07900084  0.24306463  0.66675809     0.02200
C1182       C  0.06100452  0.23788203  0.68262479    -0.33700
H1183       H  0.09847720  0.20710599  0.63062159     0.13200
H1184       H  0.13330940  0.21524314  0.59572379     0.13100
H1185       H  0.14137475  0.29779441  0.62309426     0.12900
H1186       H  0.10650734  0.28965498  0.65801475     0.12000
C1187       C  0.84316651  0.08330668  0.75431722     0.18300
C1188       C  0.84498713  0.11032219  0.76293313    -0.10800
C1189       C  0.86921366  0.12478513  0.75963199    -0.11700
C1190       C  0.89185615  0.11234547  0.74774286     0.19900
C1191       C  0.88986853  0.08551931  0.73859925    -0.13700
C1192       C  0.86563567  0.07105426  0.74189716    -0.12000
C1193       C  0.91730510  0.12678899  0.74591677     0.00800
C1194       C  0.93828833  0.13946272  0.74545461    -0.32000
C1195       C  0.81910641  0.06755164  0.76009651     0.02200
C1196       C  0.80052586  0.05313872  0.76707970    -0.33700
H1197       H  0.82789369  0.12000762  0.77274212     0.13200
H1198       H  0.87044684  0.14549164  0.76683000     0.13100
H1199       H  0.90718467  0.07562510  0.72941035     0.12900
H1200       H  0.86461967  0.05013329  0.73531575     0.12000
C1201       C  0.15614006  0.08458609  0.76318031     0.18300
C1202       C  0.15019948  0.09388464  0.73701102    -0.10800
C1203       C  0.12538036  0.10657173  0.73176763    -0.11700
C1204       C  0.10640391  0.10990274  0.75265995     0.19900
C1205       C  0.11242584  0.10073243  0.77884856    -0.13700
C1206       C  0.13721445  0.08807650  0.78408786    -0.12000
C1207       C  0.08110293  0.12344983  0.74755749     0.00800
C1208       C  0.06046444  0.13615747  0.74460658    -0.32000
C1209       C  0.18095661  0.07023033  0.76846600     0.02200
C1210       C  0.20010501  0.05624909  0.77430022    -0.33700
H1211       H  0.16462083  0.09114735  0.72067513     0.13200
H1212       H  0.12098599  0.11373882  0.71148403     0.13100
H1213       H  0.09796886  0.10334957  0.79518306     0.12900
H1214       H  0.14153415  0.08082283  0.80436439     0.12000
C1215       C  0.89305645  0.26445126  0.90047800     0.18300
C1216       C  0.92140352  0.26551370  0.89936979    -0.10800
C1217       C  0.93483262  0.26216963  0.87458858    -0.11700
C1218       C  0.92002397  0.25776612  0.85072701     0.19900
C1219       C  0.89164211  0.25729830  0.85172205    -0.13700
C1220       C  0.87819822  0.26066417  0.87652740    -0.12000
C1221       C  0.93415781  0.25177873  0.82580758     0.00800
C1222       C  0.94785334  0.24462660  0.80680734    -0.32000
C1223       C  0.87927858  0.26588930  0.92626242     0.02200
C1224       C  0.86695305  0.26588681  0.94743003    -0.33700
H1225       H  0.93312917  0.26834604  0.91771598     0.13200
H1226       H  0.95678735  0.26238742  0.87413303     0.13100
H1227       H  0.87995874  0.25372909  0.83348091     0.12900
H1228       H  0.85626934  0.25973030  0.87711808     0.12000
C1229       C  0.25679696  0.60034536  0.14823617     0.18300
C1230       C  0.27848388  0.61291763  0.13478871    -0.10800
C1231       C  0.27358237  0.63239172  0.11468057    -0.11700
C1232       C  0.24693856  0.63949350  0.10782748     0.19900
C1233       C  0.22525316  0.62722446  0.12155318    -0.13700
C1234       C  0.23015525  0.60774094  0.14166152    -0.12000
C1235       C  0.24178852  0.65873670  0.08627443     0.00800
C1236       C  0.23663973  0.67419000  0.06792253    -0.32000
C1237       C  0.26195025  0.57919472  0.16793971     0.02200
C1238       C  0.26733480  0.56090686  0.18340313    -0.33700
H1239       H  0.29918760  0.60739753  0.13959156     0.13200
H1240       H  0.29055131  0.64165722  0.10426146     0.13100
H1241       H  0.20454387  0.63247627  0.11647882     0.12900
H1242       H  0.21317929  0.59819635  0.15181045     0.12000
C1243       C  0.24781252  0.63738403  0.91284202     0.18300
C1244       C  0.27445601  0.62927474  0.90729382    -0.10800
C1245       C  0.27946853  0.60914733  0.88792175    -0.11700
C1246       C  0.25787777  0.59699495  0.87399786     0.19900
C1247       C  0.23124390  0.60521468  0.87943638    -0.13700
C1248       C  0.22623198  0.62534756  0.89880518    -0.12000
C1249       C  0.26314557  0.57578385  0.85456954     0.00800
C1250       C  0.26896426  0.55782258  0.83899427    -0.32000
C1251       C  0.24245515  0.65750816  0.93336360     0.02200
C1252       C  0.23658804  0.67354770  0.95089152    -0.33700
H1253       H  0.29129607  0.63834642  0.91805598     0.13200
H1254       H  0.30014863  0.60292800  0.88393929     0.13100
H1255       H  0.21438601  0.59595305  0.86886900     0.12900
H1256       H  0.20553456  0.63138253  0.90297870     0.12000
C1257       C  0.08533196  0.74817656  0.85019352     0.18300
C1258       C  0.07665600  0.72858541  0.86887213    -0.10800
C1259       C  0.08997343  0.72574649  0.89378272    -0.11700
C1260       C  0.11196616  0.74255708  0.90014447     0.19900
C1261       C  0.12078362  0.76194039  0.88134147    -0.13700
C1262       C  0.10749128  0.76476901  0.85646652    -0.12000
C1263       C  0.12550721  0.74019757  0.92592348     0.00800
C1264       C  0.13811974  0.73925032  0.94685716    -0.32000
C1265       C  0.07025008  0.75280041  0.82562285     0.02200
C1266       C  0.05603209  0.75901641  0.80673737    -0.33700
H1267       H  0.05934877  0.71584370  0.86437324     0.13200
H1268       H  0.08296699  0.71069547  0.90815013     0.13100
H1269       H  0.13775628  0.77505888  0.88603253     0.12900
H1270       H  0.11419284  0.78018432  0.84233779     0.12000
C1271       C  0.08643403  0.75295357  0.16598440     0.18300
C1272       C  0.11350825  0.76064944  0.16221565    -0.10800
C1273       C  0.12624759  0.75599764  0.13727882    -0.11700
C1274       C  0.11194606  0.74369977  0.11601257     0.19900
C1275       C  0.08494602  0.73587572  0.11984699    -0.13700
C1276       C  0.07222336  0.74051121  0.14476132    -0.12000
C1277       C  0.12489882  0.73954576  0.09019120     0.00800
C1278       C  0.13691895  0.73693800  0.06907159    -0.32000
C1279       C  0.07261303  0.75900889  0.19098554     0.02200
C1280       C  0.05883790  0.76513991  0.21023512    -0.33700
H1281       H  0.12462695  0.77048569  0.17838800     0.13200
H1282       H  0.14712911  0.76219263  0.13449911     0.13100
H1283       H  0.07368501  0.72642919  0.10354257     0.12900
H1284       H  0.05121683  0.73468867  0.14737662     0.12000
C1285       C  0.25659005  0.84275365  0.92705791     0.18300
C1286       C  0.26776338  0.86527861  0.94033333    -0.10800
C1287       C  0.27060360  0.88997934  0.92661998    -0.11700
C1288       C  0.26224084  0.89230483  0.89956426     0.19900
C1289       C  0.25146163  0.86967164  0.88619028    -0.13700
C1290       C  0.24862013  0.84499709  0.89989126    -0.12000
C1291       C  0.26398463  0.91794165  0.88559729     0.00800
C1292       C  0.26440231  0.93872668  0.87267943    -0.32000
C1293       C  0.25126718  0.81812911  0.94192015     0.02200
C1294       C  0.24440909  0.79914515  0.95576882    -0.33700
H1295       H  0.27375487  0.86389735  0.96141740     0.13200
H1296       H  0.27891170  0.90732353  0.93721230     0.13100
H1297       H  0.24486607  0.87121567  0.86529914     0.12900
H1298       H  0.23970825  0.82784695  0.88947539     0.12000
C1299       C  0.25752452  0.40329171  0.87552156     0.18300
C1300       C  0.27906736  0.39222832  0.89038736    -0.10800
C1301       C  0.27416563  0.37239891  0.91009522    -0.11700
C1302       C  0.24767175  0.36347069  0.91508687     0.19900
C1303       C  0.22610895  0.37452024  0.90022254    -0.13700
C1304       C  0.23101342  0.39436431  0.88050394    -0.12000
C1305       C  0.24251454  0.34340042  0.93575975     0.00800
C1306       C  0.23724522  0.32726248  0.95341417    -0.32000
C1307       C  0.26273540  0.42397297  0.85545915     0.02200
C1308       C  0.26831604  0.44153735  0.83931662    -0.33700
H1309       H  0.29965127  0.39900078  0.88680064     0.13200
H1310       H  0.29100000  0.36411986  0.92149716     0.13100
H1311       H  0.20550911  0.36787457  0.90395280     0.12900
H1312       H  0.21416378  0.40278766  0.86923196     0.12000
C1313       C  0.24925935  0.36271065  0.10736437     0.18300
C1314       C  0.23243336  0.36599680  0.13004366    -0.10800
C1315       C  0.23784768  0.38640884  0.14899067    -0.11700
C1316       C  0.26009524  0.40366639  0.14533323     0.19900
C1317       C  0.27712966  0.40015699  0.12284443    -0.13700
C1318       C  0.27171478  0.37975018  0.10389827    -0.12000
C1319       C  0.26535264  0.42514488  0.16441395     0.00800
C1320       C  0.27076031  0.44330189  0.17987124    -0.32000
C1321       C  0.24278392  0.34267209  0.08710618     0.02200
C1322       C  0.23622644  0.32681468  0.06967053    -0.33700
H1323       H  0.21496410  0.35301090  0.13289607     0.13200
H1324       H  0.22456872  0.38889397  0.16631102     0.13100
H1325       H  0.29441952  0.41334696  0.11982677     0.12900
H1326       H  0.28481609  0.37747697  0.08641378     0.12000
C1327       C  0.10980114  0.25790822  0.11840351     0.18300
C1328       C  0.12247158  0.26491532  0.14287894    -0.10800
C1329       C  0.10857347  0.26208347  0.16749558    -0.11700
C1330       C  0.08193315  0.25226076  0.16773194     0.19900
C1331       C  0.06920659  0.24552347  0.14322312    -0.13700
C1332       C  0.08308665  0.24833736  0.11864867    -0.12000
C1333       C  0.06778228  0.24792554  0.19295184     0.00800
C1334       C  0.05399938  0.24189730  0.21225563    -0.32000
C1335       C  0.12447263  0.25970764  0.09317955     0.02200
C1336       C  0.13751485  0.26052247  0.07248659    -0.33700
H1337       H  0.14316054  0.27224984  0.14295093     0.13200
H1338       H  0.11868017  0.26722854  0.18630205     0.13100
H1339       H  0.04866487  0.23777587  0.14314841     0.12900
H1340       H  0.07310549  0.24276064  0.09989586     0.12000
C1341       C  0.08447436  0.24932714  0.85411638     0.18300
C1342       C  0.11021770  0.23842866  0.85905318    -0.10800
C1343       C  0.12312952  0.24311493  0.88387446    -0.11700
C1344       C  0.11037915  0.25867897  0.90395697     0.19900
C1345       C  0.08473468  0.26980873  0.89894829    -0.13700
C1346       C  0.07181028  0.26511945  0.87410000    -0.12000
C1347       C  0.12359656  0.26275290  0.92972231     0.00800
C1348       C  0.13613213  0.26496025  0.95062429    -0.32000
C1349       C  0.07041195  0.24305131  0.82925203     0.02200
C1350       C  0.05708188  0.23650173  0.80979986    -0.33700
H1351       H  0.12013365  0.22603133  0.84388627     0.13200
H1352       H  0.14293979  0.23437248  0.88751181     0.13100
H1353       H  0.07465040  0.28184086  0.91429780     0.12900
H1354       H  0.05181441  0.27349081  0.87061242     0.12000
C1355       C  0.25804128  0.10713779  0.89987404     0.18300
C1356       C  0.23487832  0.12253325  0.89413105    -0.10800
C1357       C  0.23073381  0.14742376  0.90704578    -0.11700
C1358       C  0.24975842  0.15714173  0.92574211     0.19900
C1359       C  0.27305590  0.14186739  0.93135872    -0.13700
C1360       C  0.27721496  0.11693744  0.91841105    -0.12000
C1361       C  0.24434767  0.18181821  0.94041176     0.00800
C1362       C  0.23788752  0.20091229  0.95425860    -0.32000
C1363       C  0.26201714  0.08143513  0.88653678     0.02200
C1364       C  0.26435728  0.06055078  0.87400722    -0.33700
H1365       H  0.21993481  0.11520706  0.87981319     0.13200
H1366       H  0.21253358  0.15891056  0.90272462     0.13100
H1367       H  0.28778728  0.14904600  0.94596433     0.12900
H1368       H  0.29522071  0.10525272  0.92298366     0.12000
C1369       C  0.60016103  0.86338927  0.26465196     0.18300
C1370       C  0.62051507  0.86833154  0.28386344    -0.10800
C1371       C  0.64039589  0.88795178  0.27884744    -0.11700
C1372       C  0.63999607  0.90273834  0.25459671     0.19900
C1373       C  0.61987906  0.89749625  0.23522700    -0.13700
C1374       C  0.60000845  0.87789794  0.24024312    -0.12000
C1375       C  0.65974971  0.92368659  0.24963477     0.00800
C1376       C  0.67527214  0.94168636  0.24386269    -0.32000
C1377       C  0.57886672  0.84427297  0.27051926     0.02200
C1378       C  0.56076921  0.82907513  0.27681019    -0.33700
H1379       H  0.62079760  0.85728843  0.30284175     0.13200
H1380       H  0.65583990  0.89179871  0.29396664     0.13100
H1381       H  0.61937108  0.90878424  0.21639716     0.12900
H1382       H  0.58435334  0.87432140  0.22527294     0.12000
C1383       C  0.63882501  0.09675091  0.25590807     0.18300
C1384       C  0.61129061  0.08975193  0.25509697    -0.10800
C1385       C  0.59134275  0.10949353  0.25941311    -0.11700
C1386       C  0.59873338  0.13645030  0.26452929     0.19900
C1387       C  0.62626999  0.14346459  0.26538094    -0.13700
C1388       C  0.64623857  0.12370321  0.26105511    -0.12000
C1389       C  0.57807652  0.15668081  0.26944431     0.00800
C1390       C  0.56041617  0.17290067  0.27460071    -0.32000
C1391       C  0.65927514  0.07634421  0.25085611     0.02200
C1392       C  0.67539667  0.05868364  0.24539998    -0.33700
H1393       H  0.60523679  0.06903276  0.25106452     0.13200
H1394       H  0.57016574  0.10372966  0.25878958     0.13100
H1395       H  0.63230038  0.16418797  0.26941203     0.12900
H1396       H  0.66741948  0.12944637  0.26166679     0.12000
C1397       C  0.75542333  0.15714418  0.09314924     0.18300
C1398       C  0.77237872  0.14730224  0.11367888    -0.10800
C1399       C  0.76678604  0.12239560  0.12599579    -0.11700
C1400       C  0.74425110  0.10715800  0.11781843     0.19900
C1401       C  0.72716403  0.11707614  0.09742751    -0.13700
C1402       C  0.73276338  0.14200922  0.08509754    -0.12000
C1403       C  0.73884808  0.08144924  0.13053742     0.00800
C1404       C  0.73589760  0.06053353  0.14282962    -0.32000
C1405       C  0.76227187  0.18179984  0.07910847     0.02200
C1406       C  0.76909942  0.20085310  0.06540681    -0.33700
H1407       H  0.79008603  0.15868693  0.11989864     0.13200
H1408       H  0.78012901  0.11492894  0.14175258     0.13100
H1409       H  0.70968774  0.10548820  0.09095095     0.12900
H1410       H  0.71965910  0.14930465  0.06906822     0.12000
C1411       C  0.74972951  0.84305626  0.09006966     0.18300
C1412       C  0.75495975  0.84506594  0.11790489    -0.10800
C1413       C  0.75127657  0.86977134  0.13132787    -0.11700
C1414       C  0.74239530  0.89263541  0.11699184     0.19900
C1415       C  0.73696016  0.89059629  0.08918514    -0.13700
C1416       C  0.74063997  0.86587060  0.07575367    -0.12000
C1417       C  0.73961997  0.91821918  0.13081600     0.00800
C1418       C  0.73846694  0.93897170  0.14370380    -0.32000
C1419       C  0.75535845  0.81818036  0.07582614     0.02200
C1420       C  0.76213028  0.79888471  0.06241409    -0.33700
H1421       H  0.76226058  0.82766674  0.12913220     0.13200
H1422       H  0.75566148  0.87113074  0.15280608     0.13100
H1423       H  0.73020444  0.90814943  0.07785649     0.12900
H1424       H  0.73679855  0.86464125  0.05416267     0.12000
C1425       C  0.89402088  0.89052881  0.26836346     0.18300
C1426       C  0.89361050  0.91893238  0.26846406    -0.10800
C1427       C  0.86918263  0.93286573  0.26450683    -0.11700
C1428       C  0.84497215  0.91851621  0.26043142     0.19900
C1429       C  0.84536652  0.89012408  0.26045271    -0.13700
C1430       C  0.86978994  0.87619194  0.26441805    -0.12000
C1431       C  0.82013236  0.93301680  0.25489846     0.00800
C1432       C  0.80086346  0.94669324  0.24843753    -0.32000
C1433       C  0.91927662  0.87601448  0.27154965     0.02200
C1434       C  0.93986257  0.86280722  0.27314437    -0.33700
H1435       H  0.91217561  0.93028911  0.27133911     0.13200
H1436       H  0.86922470  0.95481958  0.26430847     0.13100
H1437       H  0.82688003  0.87877109  0.25710027     0.12900
H1438       H  0.86982223  0.85424235  0.26414585     0.12000
C1439       C  0.89532873  0.10850392  0.26885794     0.18300
C1440       C  0.87232729  0.12377127  0.26215596    -0.10800
C1441       C  0.84783231  0.11078661  0.25625984    -0.11700
C1442       C  0.84623504  0.08247210  0.25706058     0.19900
C1443       C  0.86918466  0.06720550  0.26397506    -0.13700
C1444       C  0.89368666  0.08019256  0.26986290    -0.12000
C1445       C  0.82145349  0.06891817  0.24979910     0.00800
C1446       C  0.80207473  0.05583051  0.24275113    -0.32000
C1447       C  0.92072870  0.12197614  0.27372328     0.02200
C1448       C  0.94140598  0.13469693  0.27638232    -0.33700
H1449       H  0.87341750  0.14567415  0.26118719     0.13200
H1450       H  0.83027817  0.12277185  0.25079249     0.13100
H1451       H  0.86821006  0.04528073  0.26450279     0.12900
H1452       H  0.91136363  0.06818903  0.27488234     0.12000
C1453       C  0.36463541  0.90407771  0.25756000     0.18300
C1454       C  0.37779788  0.90241767  0.28267490    -0.10800
C1455       C  0.39789181  0.88284855  0.28698520    -0.11700
C1456       C  0.40501919  0.86478629  0.26621546     0.19900
C1457       C  0.39184720  0.86641274  0.24108839    -0.13700
C1458       C  0.37173347  0.88599875  0.23677460    -0.12000
C1459       C  0.42598094  0.84485382  0.27078286     0.00800
C1460       C  0.44386003  0.82895156  0.27603686    -0.32000
C1461       C  0.34443698  0.92475660  0.25286346     0.02200
C1462       C  0.32837212  0.94255535  0.24783294    -0.33700
H1463       H  0.37263300  0.91633222  0.29886732     0.13200
H1464       H  0.40794734  0.88186758  0.30648854     0.13100
H1465       H  0.39718427  0.85263689  0.22483403     0.12900
H1466       H  0.36182615  0.88713899  0.21720544     0.12000
C1467       C  0.40497120  0.13689394  0.26675208     0.18300
C1468       C  0.38809346  0.13879563  0.24398765    -0.10800
C1469       C  0.36802586  0.11923688  0.23945505    -0.11700
C1470       C  0.36467424  0.09766070  0.25765918     0.19900
C1471       C  0.38141116  0.09588369  0.28054700    -0.13700
C1472       C  0.40147361  0.11544467  0.28508239    -0.12000
C1473       C  0.34480756  0.07687075  0.25220457     0.00800
C1474       C  0.32897721  0.05921116  0.24610097    -0.32000
C1475       C  0.42596360  0.15675426  0.27134406     0.02200
C1476       C  0.44380486  0.17268270  0.27657306    -0.33700
H1477       H  0.39055516  0.15526035  0.22967765     0.13200
H1478       H  0.35530457  0.12079209  0.22162882     0.13100
H1479       H  0.37912946  0.07927249  0.29471995     0.12900
H1480       H  0.41436881  0.11374632  0.30277250     0.12000
C1481       C  0.26136101  0.89313316  0.11992662     0.18300
C1482       C  0.26326039  0.86841670  0.13383515    -0.10800
C1483       C  0.25761553  0.84405502  0.12041833    -0.11700
C1484       C  0.25004426  0.84433120  0.09304685     0.19900
C1485       C  0.24828012  0.86904184  0.07913673    -0.13700
C1486       C  0.25391186  0.89336813  0.09253595    -0.12000
C1487       C  0.24348407  0.81951110  0.07915273     0.00800
C1488       C  0.23684683  0.80033711  0.06552703    -0.32000
C1489       C  0.26597542  0.91827946  0.13401091     0.02200
C1490       C  0.26843615  0.93907350  0.14661728    -0.33700
H1491       H  0.26883580  0.86800895  0.15507027     0.13200
H1492       H  0.25894412  0.82509483  0.13140218     0.13100
H1493       H  0.24234360  0.86951117  0.05799823     0.12900
H1494       H  0.25220577  0.91234447  0.08162660     0.12000
C1495       C  0.26212979  0.10605426  0.11655823     0.18300
C1496       C  0.24784247  0.10722469  0.09205365    -0.10800
C1497       C  0.24421611  0.13207277  0.07889786    -0.11700
C1498       C  0.25481568  0.15591967  0.09015652     0.19900
C1499       C  0.26942083  0.15471957  0.11447451    -0.13700
C1500       C  0.27306452  0.12983765  0.12763932    -0.12000
C1501       C  0.24982632  0.18148618  0.07692529     0.00800
C1502       C  0.24328595  0.20105460  0.06379894    -0.32000
C1503       C  0.26438317  0.08078124  0.13104867     0.02200
C1504       C  0.26522420  0.06039362  0.14453876    -0.33700
H1505       H  0.23917129  0.08903281  0.08334718     0.13200
H1506       H  0.23283037  0.13275127  0.06012790     0.13100
H1507       H  0.27765825  0.17299870  0.12341028     0.12900
H1508       H  0.28403457  0.12920127  0.14665186     0.12000
C1509       C  0.10706131  0.89258492  0.26941195     0.18300
C1510       C  0.13166125  0.88002379  0.27613668    -0.10800
C1511       C  0.15629175  0.89321914  0.27108710    -0.11700
C1512       C  0.15643944  0.91903912  0.25926997     0.19900
C1513       C  0.13182293  0.93169400  0.25282299    -0.13700
C1514       C  0.10722247  0.91851000  0.25785773    -0.12000
C1515       C  0.18165011  0.93248872  0.25305317     0.00800
C1516       C  0.20122992  0.94556204  0.24637116    -0.32000
C1517       C  0.08179847  0.87840277  0.27331246     0.02200
C1518       C  0.06124201  0.86531977  0.27551388    -0.33700
H1519       H  0.13180554  0.85992992  0.28496288     0.13200
H1520       H  0.17516334  0.88319776  0.27611810     0.13100
H1521       H  0.13166391  0.95162801  0.24363538     0.12900
H1522       H  0.08837518  0.92838513  0.25244860     0.12000
C1523       C  0.10915457  0.10991318  0.26696420     0.18300
C1524       C  0.11293256  0.08395702  0.27784706    -0.10800
C1525       C  0.13782369  0.07068459  0.27466566    -0.11700
C1526       C  0.15910114  0.08331413  0.26065142     0.19900
C1527       C  0.15531410  0.10927581  0.24980339    -0.13700
C1528       C  0.13044008  0.12254068  0.25298363    -0.12000
C1529       C  0.18411390  0.06892127  0.25593306     0.00800
C1530       C  0.20341957  0.05509944  0.25001221    -0.32000
C1531       C  0.08351439  0.12365743  0.26990569     0.02200
C1532       C  0.06272561  0.13646597  0.27151811    -0.33700
H1533       H  0.09662627  0.07393756  0.28861774     0.13200
H1534       H  0.14038208  0.05048026  0.28286467     0.13100
H1535       H  0.17146570  0.11912851  0.23865117     0.12900
H1536       H  0.12774785  0.14256705  0.24440040     0.12000
loop_ 
_geom_bond_atom_site_label_1 
_geom_bond_atom_site_label_2 
_geom_bond_distance 
_geom_bond_site_symmetry_2 
_ccdc_geom_bond_type 
O1           C16   1.262       .  A
O1           Al9   1.911       .  S
C2           O12   1.257       .  A
C2            O3   1.261       .  A
C2         C1490   1.435       .  S
O3           Al5   1.917       .  S
O4            C6   1.257       .  A
O4           Al5   1.890       .  S
Al5          O13   1.889   1_565  S
Al5          O15   1.904   1_565  S
Al5          O14   1.787   1_565  S
C6           O19   1.263       .  A
C6         C1516   1.437       .  S
O7           C17   1.260       .  A
O7           Al9   1.909   1_565  S
O8           C21   1.258       .  A
O8          Al18   1.890       .  S
Al9          O22   1.933       .  S
Al9          O19   1.927   1_545  S
Al9          O14   1.791       .  S
O10          C17   1.260       .  A
O10         Al18   1.912   1_565  S
O11          C20   1.261       .  A
O11         Al18   1.924       .  S
O12         Al18   1.893   1_565  S
O13          C20   1.256       .  A
O14         Al18   1.791       .  S
O15          C16   1.259       .  A
C16        C1530   1.437       .  S
C17        C1462   1.440       .  S
C20        C1504   1.437       .  S
C21          O22   1.264       .  A
C21        C1474   1.439       .  S
O23          C38   1.261       .  A
O23         Al31   1.913   1_565  S
C24          O34   1.256       .  A
C24          O25   1.260       .  A
C24        C1404   1.435       .  S
O25         Al27   1.918       .  S
O26          C28   1.258       .  A
O26         Al27   1.889       .  S
Al27         O35   1.887   1_545  S
Al27         O37   1.907   1_545  S
Al27         O36   1.787       .  S
C28          O41   1.263       .  A
C28        C1446   1.433       .  S
O29          C39   1.260       .  A
O29         Al31   1.909       .  S
O30          C43   1.257       .  A
O30         Al40   1.886       .  S
Al31         O44   1.930   1_545  S
Al31         O41   1.925       .  S
Al31         O36   1.790       .  S
O32          C39   1.260       .  A
O32         Al40   1.915   1_545  S
O33          C42   1.263       .  A
O33         Al40   1.927       .  S
O34         Al40   1.893   1_545  S
O35          C42   1.256       .  A
O36         Al40   1.790   1_545  S
O37          C38   1.259       .  A
C38        C1432   1.439       .  S
C39        C1392   1.442       .  S
C42        C1418   1.436       .  S
C43          O44   1.264       .  A
C43        C1376   1.436       .  S
O45          C60   1.261       .  A
O45         Al53   1.909       .  S
C46          O56   1.257       .  A
C46          O47   1.260       .  A
C46        C1348   1.437       .  S
O47         Al49   1.920   1_556  S
O48          C50   1.258       .  A
O48         Al49   1.890   1_556  S
Al49         O57   1.890       .  S
Al49         O59   1.906       .  S
Al49         O58   1.786       .  S
C50          O63   1.263       .  A
C50        C1362   1.435       .  S
O51          C61   1.260       .  A
O51         Al53   1.904   1_556  S
O52          C65   1.257       .  A
O52         Al62   1.889       .  S
Al53         O66   1.927       .  S
Al53         O63   1.928   1_554  S
Al53         O58   1.790       .  S
O54          C61   1.260       .  A
O54         Al62   1.914   1_556  S
O55          C64   1.262       .  A
O55         Al62   1.925       .  S
O56         Al62   1.894   1_556  S
O57          C64   1.257       .  A
O58         Al62   1.789       .  S
O59          C60   1.259       .  A
C60        C1502   1.436       .  S
C61        C1306   1.439       .  S
C64        C1336   1.436       .  S
C65          O66   1.263       .  A
C65        C1322   1.437       .  S
O67          C82   1.261       .  A
O67         Al75   1.910   1_556  S
C68          O78   1.256       .  A
C68          O69   1.261       .  A
C68        C1278   1.433       .  S
O69         Al71   1.919       .  S
O70          C72   1.258       .  A
O70         Al71   1.887       .  S
Al71         O79   1.889   1_554  S
Al71         O81   1.907   1_554  S
Al71         O80   1.786       .  S
C72          O85   1.264       .  A
C72        C1488   1.435       .  S
O73          C83   1.260       .  A
O73         Al75   1.907       .  S
O74          C87   1.257       .  A
O74         Al84   1.886   1_556  S
Al75         O88   1.933   1_554  S
Al75         O85   1.928       .  S
Al75         O80   1.787       .  S
O76          C83   1.261       .  A
O76         Al84   1.919       .  S
O77          C86   1.263       .  A
O77         Al84   1.928   1_556  S
O78         Al84   1.890       .  S
O79          C86   1.257       .  A
O80         Al84   1.788       .  S
O81          C82   1.259       .  A
C82        C1294   1.437       .  S
C83        C1236   1.443       .  S
C86        C1264   1.436       .  S
C87          O88   1.265       .  A
C87        C1252   1.437       .  S
O89         C104   1.260       .  A
O89         Al97   1.910   1_655  S
C90         O100   1.256       .  A
C90          O91   1.261       .  A
C90        C1208   1.433       .  S
O91         Al93   1.919       .  S
O92          C94   1.259       .  A
O92         Al93   1.892       .  S
Al93        O101   1.893   1_455  S
Al93        O103   1.907   1_455  S
Al93        O102   1.787       .  S
C94         O107   1.264       .  A
C94        C1350   1.437       .  S
O95         C105   1.260       .  A
O95         Al97   1.908       .  S
O96         C109   1.257       .  A
O96        Al106   1.882   1_655  S
Al97        O110   1.930   1_455  S
Al97        O107   1.929       .  S
Al97        O102   1.789       .  S
O98         C105   1.261       .  A
O98        Al106   1.918       .  S
O99         C108   1.263       .  A
O99        Al106   1.931   1_655  S
O100       Al106   1.890       .  S
O101        C108   1.257       .  A
O102       Al106   1.789       .  S
O103        C104   1.259       .  A
C104       C1222   1.437       .  S
C105       C1182   1.443       .  S
C108       C1194   1.441       .  S
C109        O110   1.264       .  A
C109       C1168   1.435       .  S
O111        C126   1.261       .  A
O111       Al119   1.910       .  S
C112        O122   1.256       .  A
C112        O113   1.260       .  A
C112       C1448   1.433       .  S
O113       Al115   1.916   1_655  S
O114        C116   1.258       .  A
O114       Al115   1.889   1_655  S
Al115       O123   1.888       .  S
Al115       O125   1.904       .  S
Al115       O124   1.787       .  S
C116        O129   1.263       .  A
C116       C1154   1.434       .  S
O117        C127   1.260       .  A
O117       Al119   1.908   1_655  S
O118        C131   1.257       .  A
O118       Al128   1.887       .  S
Al119       O132   1.928       .  S
Al119       O129   1.925   1_455  S
Al119       O124   1.790       .  S
O120        C127   1.261       .  A
O120       Al128   1.918   1_655  S
O121        C130   1.263       .  A
O121       Al128   1.929       .  S
O122       Al128   1.892   1_655  S
O123        C130   1.256       .  A
O124       Al128   1.789       .  S
O125        C126   1.258       .  A
C126       C1334   1.436       .  S
C127       C1126   1.442       .  S
C130       C1532   1.437       .  S
C131        O132   1.264       .  A
C131       C1140   1.436       .  S
O133        C148   1.260       .  A
O133       Al141   1.906   1_655  S
C134        O144   1.257       .  A
C134        O135   1.261       .  A
C134       C1518   1.437       .  S
O135       Al137   1.920       .  S
O136        C138   1.257       .  A
O136       Al137   1.887       .  S
Al137       O145   1.889   1_455  S
Al137       O147   1.908   1_455  S
Al137       O146   1.788       .  S
C138        O151   1.263       .  A
C138       C1280   1.435       .  S
O139        C149   1.260       .  A
O139       Al141   1.906       .  S
O140        C153   1.257       .  A
O140       Al150   1.888   1_655  S
Al141       O154   1.930   1_455  S
Al141       O151   1.928       .  S
Al141       O146   1.791       .  S
O142        C149   1.262       .  A
O142       Al150   1.922       .  S
O143        C152   1.263       .  A
O143       Al150   1.933   1_655  S
O144       Al150   1.893       .  S
O145        C152   1.256       .  A
O146       Al150   1.789       .  S
O147        C148   1.259       .  A
C148       C1110   1.437       .  S
C149       C1082   1.443       .  S
C152       C1434   1.441       .  S
C153        O154   1.264       .  A
C153       C1096   1.438       .  S
O155        C170   1.260       .  A
O155       Al163   1.907       .  S
C156        O166   1.257       .  A
C156        O157   1.261       .  A
C156       C1054   1.437       .  S
O157       Al159   1.921   1_556  S
O158        C160   1.259       .  A
O158       Al159   1.892   1_556  S
Al159       O167   1.891       .  S
Al159       O169   1.904       .  S
Al159       O168   1.787       .  S
C160        O173   1.263       .  A
C160       C1070   1.436       .  S
O161        C171   1.259       .  A
O161       Al163   1.904   1_556  S
O162        C175   1.258       .  A
O162       Al172   1.886       .  S
Al163       O176   1.926       .  S
Al163       O173   1.925   1_554  S
Al163       O168   1.789       .  S
O164        C171   1.260       .  A
O164       Al172   1.914   1_556  S
O165        C174   1.262       .  A
O165       Al172   1.928       .  S
O166       Al172   1.894   1_556  S
O167        C174   1.257       .  A
O168       Al172   1.790       .  S
O169        C170   1.258       .  A
C170       C1420   1.435       .  S
C171       C1028   1.439       .  S
C174       C1112   1.439       .  S
C175        O176   1.264       .  A
C175       C1042   1.434       .  S
O177        C192   1.260       .  A
O177       Al185   1.907   1_565  S
C178        O188   1.256       .  A
C178        O179   1.261       .  A
C178       C1364   1.437       .  S
O179       Al181   1.923   1_545  S
O180        C182   1.257       .  A
O180       Al181   1.885   1_545  S
Al181       O189   1.889       .  S
Al181       O191   1.911       .  S
Al181       O190   1.787   1_565  S
C182        O195   1.264       .  A
C182       C1210   1.433       .  S
O183        C193   1.258       .  A
O183       Al185   1.902       .  S
O184        C197   1.258       .  A
O184       Al194   1.888   1_565  S
Al185       O198   1.933   1_545  S
Al185       O195   1.928       .  S
Al185       O190   1.790       .  S
O186        C193   1.260       .  A
O186       Al194   1.914       .  S
O187        C196   1.263       .  A
O187       Al194   1.928   1_565  S
O188       Al194   1.893       .  S
O189        C196   1.257       .  A
O190       Al194   1.788       .  S
O191        C192   1.260       .  A
C192       C1014   1.438       .  S
C193        C984   1.438       .  S
C196       C1292   1.438       .  S
C197        O198   1.265       .  A
C197        C998   1.439       .  S
O199        C214   1.260       .  A
O199       Al207   1.905       .  S
C200        O210   1.256       .  A
C200        O201   1.261       .  A
C200        C970   1.436       .  S
O201       Al203   1.921   1_655  S
O202        C204   1.259       .  A
O202       Al203   1.892   1_655  S
Al203       O211   1.891       .  S
Al203       O213   1.907       .  S
Al203       O212   1.786       .  S
C204        O217   1.264       .  A
C204       C1056   1.437       .  S
O205        C215   1.259       .  A
O205       Al207   1.902   1_655  S
O206        C219   1.256       .  A
O206       Al216   1.884       .  S
Al207       O220   1.932       .  S
Al207       O217   1.930   1_455  S
Al207       O212   1.789       .  S
O208        C215   1.261       .  A
O208       Al216   1.917   1_655  S
O209        C218   1.263       .  A
O209       Al216   1.928       .  S
O210       Al216   1.892   1_655  S
O211        C218   1.257       .  A
O212       Al216   1.789       .  S
O213        C214   1.259       .  A
C214       C1266   1.435       .  S
C215        C944   1.439       .  S
C218       C1012   1.438       .  S
C219        O220   1.264       .  A
C219        C958   1.436       .  S
O221        C236   1.260       .  A
O221       Al229   1.911   1_556  S
C222        O232   1.256       .  A
C222        O223   1.261       .  A
C222       C1152   1.434       .  S
O223       Al225   1.921       .  S
O224        C226   1.259       .  A
O224       Al225   1.890       .  S
Al225       O233   1.890   1_554  S
Al225       O235   1.908   1_554  S
Al225       O234   1.788       .  S
C226        O239   1.264       .  A
C226       C1406   1.435       .  S
O227        C237   1.260       .  A
O227       Al229   1.907       .  S
O228        C241   1.257       .  A
O228       Al238   1.884   1_556  S
Al229       O242   1.931   1_554  S
Al229       O239   1.927       .  S
Al229       O234   1.788       .  S
O230        C237   1.260       .  A
O230       Al238   1.917       .  S
O231        C240   1.263       .  A
O231       Al238   1.929   1_556  S
O232       Al238   1.890       .  S
O233        C240   1.257       .  A
O234       Al238   1.789       .  S
O235        C236   1.259       .  A
C236        C930   1.439       .  S
C237        C902   1.443       .  S
C240       C1224   1.438       .  S
C241        O242   1.264       .  A
C241        C916   1.437       .  S
O243        C258   1.261       .  A
O243       Al251   1.914   1_545  S
C244        O254   1.256       .  A
C244        O245   1.261       .  A
C244       C1068   1.437       .  S
O245       Al247   1.923       .  S
O246        C248   1.258       .  A
O246       Al247   1.890       .  S
Al247       O255   1.891   1_565  S
Al247       O257   1.910   1_565  S
Al247       O256   1.788       .  S
C248        O261   1.264       .  A
C248        C972   1.435       .  S
O249        C259   1.260       .  A
O249       Al251   1.910       .  S
O250        C263   1.257       .  A
O250       Al260   1.887       .  S
Al251       O264   1.932   1_565  S
Al251       O261   1.928       .  S
Al251       O256   1.789       .  S
O252        C259   1.260       .  A
O252       Al260   1.916   1_565  S
O253        C262   1.263       .  A
O253       Al260   1.929       .  S
O254       Al260   1.892   1_565  S
O255        C262   1.257       .  A
O256       Al260   1.791   1_565  S
O257        C258   1.259       .  A
C258       C1196   1.442       .  S
C259        C872   1.444       .  S
C262        C928   1.439       .  S
C263        O264   1.265       .  A
C263        C886   1.439       .  S
O265        C280   1.261       .  A
O265       Al273   1.914       .  S
C266        O276   1.256       .  A
C266        O267   1.261       .  A
C266        C818   1.436       .  S
O267       Al269   1.923       .  S
O268        C270   1.259       .  A
O268       Al269   1.888       .  S
Al269       O277   1.893       .  S
Al269       O279   1.906       .  S
Al269       O278   1.787       .  S
C270        O283   1.264       .  A
C270        C846   1.433       .  S
O271        C281   1.260       .  A
O271       Al273   1.909       .  S
O272        C285   1.257       .  A
O272       Al282   1.886       .  S
Al273       O286   1.933       .  S
Al273       O283   1.926       .  S
Al273       O278   1.789       .  S
O274        C281   1.259       .  A
O274       Al282   1.913       .  S
O275        C284   1.262       .  A
O275       Al282   1.926       .  S
O276       Al282   1.892       .  S
O277        C284   1.257       .  A
O278       Al282   1.789       .  S
O279        C280   1.258       .  A
C280        C860   1.440       .  S
C281       C1390   1.442       .  S
C284        C830   1.437       .  S
C285        O286   1.265       .  A
C285       C1476   1.438       .  S
O287        C302   1.261       .  A
O287       Al295   1.911       .  S
C288        O298   1.256       .  A
C288        O289   1.261       .  A
C288        C774   1.436       .  S
O289       Al291   1.922       .  S
O290        C292   1.258       .  A
O290       Al291   1.887       .  S
Al291       O299   1.890       .  S
Al291       O301   1.907       .  S
Al291       O300   1.786       .  S
C292        O305   1.263       .  A
C292        C788   1.434       .  S
O293        C303   1.260       .  A
O293       Al295   1.910       .  S
O294        C307   1.256       .  A
O294       Al304   1.884       .  S
Al295       O308   1.930       .  S
Al295       O305   1.927       .  S
Al295       O300   1.790       .  S
O296        C303   1.261       .  A
O296       Al304   1.919       .  S
O297        C306   1.263       .  A
O297       Al304   1.931       .  S
O298       Al304   1.891       .  S
O299        C306   1.256       .  A
O300       Al304   1.789       .  S
O301        C302   1.259       .  A
C302        C802   1.438       .  S
C303       C1238   1.444       .  S
C306        C858   1.440       .  S
C307        O308   1.264       .  A
C307       C1320   1.435       .  S
O309        C324   1.261       .  A
O309       Al317   1.910       .  S
C310        O320   1.256       .  A
C310        O311   1.261       .  A
C310        C748   1.439       .  S
O311       Al313   1.922       .  S
O312        C314   1.258       .  A
O312       Al313   1.888       .  S
Al313       O321   1.889       .  S
Al313       O323   1.907       .  S
Al313       O322   1.787       .  S
C314        O327   1.264       .  A
C314        C760   1.436       .  S
O315        C325   1.260       .  A
O315       Al317   1.906       .  S
O316        C329   1.257       .  A
O316       Al326   1.886       .  S
Al317       O330   1.931       .  S
Al317       O327   1.930       .  S
Al317       O322   1.791       .  S
O318        C325   1.261       .  A
O318       Al326   1.917       .  S
O319        C328   1.263       .  A
O319       Al326   1.930       .  S
O320       Al326   1.893       .  S
O321        C328   1.257       .  A
O322       Al326   1.790       .  S
O323        C324   1.259       .  A
C324        C832   1.437       .  S
C325       C1180   1.442       .  S
C328        C804   1.439       .  S
C329        O330   1.264       .  A
C329       C1138   1.437       .  S
O331        C346   1.261       .  A
O331       Al339   1.909       .  S
C332        O342   1.256       .  A
C332        O333   1.261       .  A
C332        C790   1.433       .  S
O333       Al335   1.918       .  S
O334        C336   1.258       .  A
O334       Al335   1.890       .  S
Al335       O343   1.887       .  S
Al335       O345   1.906       .  S
Al335       O344   1.787       .  S
C336        O349   1.262       .  A
C336        C718   1.434       .  S
O337        C347   1.260       .  A
O337       Al339   1.908       .  S
O338        C351   1.257       .  A
O338       Al348   1.886       .  S
Al339       O352   1.928       .  S
Al339       O349   1.923       .  S
Al339       O344   1.789       .  S
O340        C347   1.261       .  A
O340       Al348   1.918       .  S
O341        C350   1.262       .  A
O341       Al348   1.925       .  S
O342       Al348   1.889       .  S
O343        C350   1.256       .  A
O344       Al348   1.789       .  S
O345        C346   1.259       .  A
C346        C734   1.436       .  S
C347       C1084   1.442       .  S
C350        C704   1.435       .  S
C351        O352   1.263       .  A
C351        C956   1.436       .  S
O353        C368   1.260       .  A
O353       Al361   1.906       .  S
C354        O364   1.256       .  A
C354        O355   1.260       .  A
C354        C678   1.434       .  S
O355       Al357   1.916       .  S
O356        C358   1.259       .  A
O356       Al357   1.892       .  S
Al357       O365   1.889       .  S
Al357       O367   1.902       .  S
Al357       O366   1.787       .  S
C358        O371   1.265       .  A
C358        C746   1.438       .  S
O359        C369   1.260       .  A
O359       Al361   1.904       .  S
O360        C373   1.257       .  A
O360       Al370   1.885       .  S
Al361       O374   1.932       .  S
Al361       O371   1.932       .  S
Al361       O366   1.789       .  S
O362        C369   1.261       .  A
O362       Al370   1.917       .  S
O363        C372   1.263       .  A
O363       Al370   1.930       .  S
O364       Al370   1.893       .  S
O365        C372   1.257       .  A
O366       Al370   1.789       .  S
O367        C368   1.258       .  A
C368        C706   1.433       .  S
C369       C1308   1.440       .  S
C372        C692   1.439       .  S
C373        O374   1.264       .  A
C373       C1250   1.437       .  S
O375        C390   1.261       .  A
O375       Al383   1.909       .  S
C376        O386   1.256       .  A
C376        O377   1.261       .  A
C376        C720   1.434       .  S
O377       Al379   1.918       .  S
O378        C380   1.258       .  A
O378       Al379   1.891       .  S
Al379       O387   1.887       .  S
Al379       O389   1.907       .  S
Al379       O388   1.785       .  S
C380        O393   1.264       .  A
C380        C776   1.436       .  S
O381        C391   1.260       .  A
O381       Al383   1.906       .  S
O382        C395   1.257       .  A
O382       Al392   1.886       .  S
Al383       O396   1.929       .  S
Al383       O393   1.928       .  S
Al383       O388   1.788       .  S
O384        C391   1.261       .  A
O384       Al392   1.916       .  S
O385        C394   1.263       .  A
O385       Al392   1.929       .  S
O386       Al392   1.892       .  S
O387        C394   1.256       .  A
O388       Al392   1.789       .  S
O389        C390   1.259       .  A
C390        C664   1.436       .  S
C391       C1460   1.440       .  S
C394        C650   1.437       .  S
C395        O396   1.264       .  A
C395       C1378   1.436       .  S
O397        C412   1.261       .  A
O397       Al405   1.909       .  S
C398        O408   1.255       .  A
C398        O399   1.262       .  A
C398        C844   1.432       .  S
O399       Al401   1.921       .  S
O400        C402   1.259       .  A
O400       Al401   1.892       .  S
Al401       O409   1.888       .  S
Al401       O411   1.906       .  S
Al401       O410   1.785       .  S
C402        O415   1.264       .  A
C402        C622   1.437       .  S
O403        C413   1.260       .  A
O403       Al405   1.908       .  S
O404        C417   1.256       .  A
O404       Al414   1.879       .  S
Al405       O418   1.932       .  S
Al405       O415   1.930       .  S
Al405       O410   1.787       .  S
O406        C413   1.261       .  A
O406       Al414   1.920       .  S
O407        C416   1.262       .  A
O407       Al414   1.929       .  S
O408       Al414   1.885       .  S
O409        C416   1.256       .  A
O410       Al414   1.789       .  S
O411        C412   1.259       .  A
C412        C634   1.436       .  S
C413        C900   1.443       .  S
C416        C662   1.437       .  S
C417        O418   1.265       .  A
C417       C1040   1.434       .  S
O419        C434   1.261       .  A
O419       Al427   1.910       .  S
C420        O430   1.256       .  A
C420        O421   1.260       .  A
C420        C592   1.435       .  S
O421       Al423   1.919       .  S
O422        C424   1.258       .  A
O422       Al423   1.889       .  S
Al423       O431   1.888       .  S
Al423       O433   1.907       .  S
Al423       O432   1.786       .  S
C424        O437   1.264       .  A
C424        C608   1.435       .  S
O425        C435   1.260       .  A
O425       Al427   1.905       .  S
O426        C439   1.257       .  A
O426       Al436   1.887       .  S
Al427       O440   1.932       .  S
Al427       O437   1.929       .  S
Al427       O432   1.789       .  S
O428        C435   1.261       .  A
O428       Al436   1.915       .  S
O429        C438   1.262       .  A
O429       Al436   1.925       .  S
O430       Al436   1.892       .  S
O431        C438   1.257       .  A
O432       Al436   1.789       .  S
O433        C434   1.259       .  A
C434        C648   1.437       .  S
C435        C942   1.439       .  S
C438        C636   1.436       .  S
C439        O440   1.264       .  A
C439       C1098   1.438       .  S
O441        C456   1.261       .  A
O441       Al449   1.908       .  S
C442        O452   1.256       .  A
C442        O443   1.261       .  A
C442        C566   1.435       .  S
O443       Al445   1.921       .  S
O444        C446   1.257       .  A
O444       Al445   1.888       .  S
Al445       O453   1.889       .  S
Al445       O455   1.907       .  S
Al445       O454   1.786       .  S
C446        O459   1.263       .  A
C446        C594   1.435       .  S
O447        C457   1.260       .  A
O447       Al449   1.905       .  S
O448        C461   1.258       .  A
O448       Al458   1.888       .  S
Al449       O462   1.933       .  S
Al449       O459   1.928       .  S
Al449       O454   1.788       .  S
O450        C457   1.260       .  A
O450       Al458   1.914       .  S
O451        C460   1.262       .  A
O451       Al458   1.927       .  S
O452       Al458   1.889       .  S
O453        C460   1.256       .  A
O454       Al458   1.789       .  S
O455        C456   1.260       .  A
C456        C578   1.436       .  S
C457       C1026   1.438       .  S
C460        C550   1.438       .  S
C461        O462   1.265       .  A
C461        C914   1.438       .  S
O463        C478   1.260       .  A
O463       Al471   1.910       .  S
C464        O474   1.256       .  A
C464        O465   1.261       .  A
C464        C606   1.436       .  S
O465       Al467   1.922       .  S
O466        C468   1.258       .  A
O466       Al467   1.888       .  S
Al467       O475   1.888       .  S
Al467       O477   1.908       .  S
Al467       O476   1.789       .  S
C468        O481   1.264       .  A
C468        C564   1.435       .  S
O469        C479   1.259       .  A
O469       Al471   1.906       .  S
O470        C483   1.257       .  A
O470       Al480   1.887       .  S
Al471       O484   1.931       .  S
Al471       O481   1.928       .  S
Al471       O476   1.790       .  S
O472        C479   1.260       .  A
O472       Al480   1.917       .  S
O473        C482   1.263       .  A
O473       Al480   1.929       .  S
O474       Al480   1.891       .  S
O475        C482   1.257       .  A
O476       Al480   1.790       .  S
O477        C478   1.258       .  A
C478        C690   1.439       .  S
C479        C874   1.443       .  S
C482        C732   1.437       .  S
C483        O484   1.264       .  A
C483       C1000   1.439       .  S
O485        C500   1.261       .  A
O485       Al493   1.909       .  S
C486        O496   1.256       .  A
C486        O487   1.259       .  A
C486        C762   1.436       .  S
O487       Al489   1.919       .  S
O488        C490   1.258       .  A
O488       Al489   1.886       .  S
Al489       O497   1.884       .  S
Al489       O499   1.908       .  S
Al489       O498   1.787       .  S
C490        O503   1.265       .  A
C490        C676   1.433       .  S
O491        C501   1.259       .  A
O491       Al493   1.901       .  S
O492        C505   1.257       .  A
O492       Al502   1.887       .  S
Al493       O506   1.934       .  S
Al493       O503   1.930       .  S
Al493       O498   1.789       .  S
O494        C501   1.260       .  A
O494       Al502   1.914       .  S
O495        C504   1.264       .  A
O495       Al502   1.929       .  S
O496       Al502   1.894       .  S
O497        C504   1.257       .  A
O498       Al502   1.788       .  S
O499        C500   1.259       .  A
C500        C552   1.437       .  S
C501        C986   1.437       .  S
C504        C536   1.435       .  S
C505        O506   1.265       .  A
C505        C888   1.440       .  S
O507        C522   1.260       .  A
O507       Al515   1.906       .  S
C508        O518   1.256       .  A
C508        O509   1.261       .  A
C508        C620   1.437       .  S
O509       Al511   1.920       .  S
O510        C512   1.258       .  A
O510       Al511   1.890       .  S
Al511       O519   1.888       .  S
Al511       O521   1.908       .  S
Al511       O520   1.788       .  S
C512        O525   1.263       .  A
C512        C816   1.436       .  S
O513        C523   1.260       .  A
O513       Al515   1.905       .  S
O514        C527   1.256       .  A
O514       Al524   1.887       .  S
Al515       O528   1.926       .  S
Al515       O525   1.926       .  S
Al515       O520   1.791       .  S
O516        C523   1.262       .  A
O516       Al524   1.919       .  S
O517        C526   1.262       .  A
O517       Al524   1.927       .  S
O518       Al524   1.893       .  S
O519        C526   1.256       .  A
O520       Al524   1.789       .  S
O521        C522   1.259       .  A
C522        C538   1.435       .  S
C523       C1124   1.441       .  S
C526        C580   1.438       .  S
C527        O528   1.263       .  A
C527       C1166   1.435       .  S
C529        C537   1.441       .  S
C529        C530   1.401       .  A
C529        C534   1.402       .  A
C530        C531   1.399       .  A
C530        H539   1.084       .  S
C531        C532   1.402       .  A
C531        H540   1.083       .  S
C532        C535   1.440       .  S
C532        C533   1.401       .  A
C533        C534   1.400       .  A
C533        H541   1.083       .  S
C534        H542   1.083       .  S
C535        C536   1.206       .  T
C537        C538   1.206       .  T
C543        C551   1.443       .  S
C543        C544   1.403       .  A
C543        C548   1.401       .  A
C544        C545   1.402       .  A
C544        H553   1.084       .  S
C545        C546   1.402       .  A
C545        H554   1.083       .  S
C546        C549   1.443       .  S
C546        C547   1.402       .  A
C547        C548   1.399       .  A
C547        H555   1.084       .  S
C548        H556   1.083       .  S
C549        C550   1.208       .  T
C551        C552   1.207       .  T
C557        C565   1.441       .  S
C557        C558   1.400       .  A
C557        C562   1.403       .  A
C558        C559   1.399       .  A
C558        H567   1.083       .  S
C559        C560   1.402       .  A
C559        H568   1.083       .  S
C560        C563   1.440       .  S
C560        C561   1.401       .  A
C561        C562   1.400       .  A
C561        H569   1.083       .  S
C562        H570   1.083       .  S
C563        C564   1.206       .  T
C565        C566   1.206       .  T
C571        C579   1.443       .  S
C571        C572   1.403       .  A
C571        C576   1.401       .  A
C572        C573   1.401       .  A
C572        H581   1.083       .  S
C573        C574   1.401       .  A
C573        H582   1.083       .  S
C574        C577   1.442       .  S
C574        C575   1.402       .  A
C575        C576   1.399       .  A
C575        H583   1.084       .  S
C576        H584   1.083       .  S
C577        C578   1.207       .  T
C579        C580   1.208       .  T
C585        C593   1.441       .  S
C585        C586   1.402       .  A
C585        C590   1.401       .  A
C586        C587   1.399       .  A
C586        H595   1.083       .  S
C587        C588   1.400       .  A
C587        H596   1.083       .  S
C588        C591   1.441       .  S
C588        C589   1.403       .  A
C589        C590   1.400       .  A
C589        H597   1.083       .  S
C590        H598   1.083       .  S
C591        C592   1.206       .  T
C593        C594   1.206       .  T
C599        C607   1.441       .  S
C599        C600   1.401       .  A
C599        C604   1.402       .  A
C600        C601   1.400       .  A
C600        H609   1.083       .  S
C601        C602   1.402       .  A
C601        H610   1.083       .  S
C602        C605   1.441       .  S
C602        C603   1.401       .  A
C603        C604   1.400       .  A
C603        H611   1.083       .  S
C604        H612   1.083       .  S
C605        C606   1.207       .  T
C607        C608   1.206       .  T
C613        C621   1.443       .  S
C613        C614   1.403       .  A
C613        C618   1.401       .  A
C614        C615   1.400       .  A
C614        H623   1.084       .  S
C615        C616   1.401       .  A
C615        H624   1.083       .  S
C616        C619   1.443       .  S
C616        C617   1.403       .  A
C617        C618   1.401       .  A
C617        H625   1.083       .  S
C618        H626   1.083       .  S
C619        C620   1.208       .  T
C621        C622   1.208       .  T
C627        C635   1.441       .  S
C627        C628   1.401       .  A
C627        C632   1.403       .  A
C628        C629   1.399       .  A
C628        H637   1.083       .  S
C629        C630   1.402       .  A
C629        H638   1.084       .  S
C630        C633   1.442       .  S
C630        C631   1.401       .  A
C631        C632   1.400       .  A
C631        H639   1.083       .  S
C632        H640   1.084       .  S
C633        C634   1.207       .  T
C635        C636   1.207       .  T
C641        C649   1.443       .  S
C641        C642   1.402       .  A
C641        C646   1.402       .  A
C642        C643   1.399       .  A
C642        H651   1.083       .  S
C643        C644   1.401       .  A
C643        H652   1.084       .  S
C644        C647   1.443       .  S
C644        C645   1.403       .  A
C645        C646   1.402       .  A
C645        H653   1.083       .  S
C646        H654   1.083       .  S
C647        C648   1.208       .  T
C649        C650   1.208       .  T
C655        C663   1.442       .  S
C655        C656   1.402       .  A
C655        C660   1.401       .  A
C656        C657   1.399       .  A
C656        H665   1.084       .  S
C657        C658   1.400       .  A
C657        H666   1.083       .  S
C658        C661   1.443       .  S
C658        C659   1.403       .  A
C659        C660   1.402       .  A
C659        H667   1.083       .  S
C660        H668   1.083       .  S
C661        C662   1.208       .  T
C663        C664   1.207       .  T
C669        C677   1.440       .  S
C669        C670   1.402       .  A
C669        C674   1.400       .  A
C670        C671   1.399       .  A
C670        H679   1.083       .  S
C671        C672   1.400       .  A
C671        H680   1.083       .  S
C672        C675   1.439       .  S
C672        C673   1.402       .  A
C673        C674   1.399       .  A
C673        H681   1.084       .  S
C674        H682   1.083       .  S
C675        C676   1.205       .  T
C677        C678   1.205       .  T
C683        C691   1.444       .  S
C683        C684   1.403       .  A
C683        C688   1.401       .  A
C684        C685   1.401       .  A
C684        H693   1.084       .  S
C685        C686   1.402       .  A
C685        H694   1.083       .  S
C686        C689   1.444       .  S
C686        C687   1.403       .  A
C687        C688   1.401       .  A
C687        H695   1.084       .  S
C688        H696   1.083       .  S
C689        C690   1.208       .  T
C691        C692   1.208       .  T
C697        C705   1.440       .  S
C697        C698   1.400       .  A
C697        C702   1.402       .  A
C698        C699   1.400       .  A
C698        H707   1.083       .  S
C699        C700   1.402       .  A
C699        H708   1.084       .  S
C700        C703   1.440       .  S
C700        C701   1.401       .  A
C701        C702   1.399       .  A
C701        H709   1.083       .  S
C702        H710   1.084       .  S
C703        C704   1.206       .  T
C705        C706   1.205       .  T
C711        C719   1.439       .  S
C711        C712   1.401       .  A
C711        C716   1.402       .  A
C712        C713   1.397       .  A
C712        H721   1.084       .  S
C713        C714   1.400       .  A
C713        H722   1.083       .  S
C714        C717   1.440       .  S
C714        C715   1.402       .  A
C715        C716   1.401       .  A
C715        H723   1.083       .  S
C716        H724   1.083       .  S
C717        C718   1.205       .  T
C719        C720   1.206       .  T
C725        C733   1.442       .  S
C725        C726   1.401       .  A
C725        C730   1.403       .  A
C726        C727   1.400       .  A
C726        H735   1.083       .  S
C727        C728   1.403       .  A
C727        H736   1.083       .  S
C728        C731   1.442       .  S
C728        C729   1.401       .  A
C729        C730   1.400       .  A
C729        H737   1.083       .  S
C730        H738   1.084       .  S
C731        C732   1.207       .  T
C733        C734   1.207       .  T
C739        C747   1.444       .  S
C739        C740   1.403       .  A
C739        C744   1.401       .  A
C740        C741   1.401       .  A
C740        H749   1.083       .  S
C741        C742   1.401       .  A
C741        H750   1.083       .  S
C742        C745   1.444       .  S
C742        C743   1.403       .  A
C743        C744   1.401       .  A
C743        H751   1.083       .  S
C744        H752   1.083       .  S
C745        C746   1.208       .  T
C747        C748   1.208       .  T
C753        C761   1.442       .  S
C753        C754   1.403       .  A
C753        C758   1.401       .  A
C754        C755   1.400       .  A
C754        H763   1.083       .  S
C755        C756   1.401       .  A
C755        H764   1.083       .  S
C756        C759   1.442       .  S
C756        C757   1.403       .  A
C757        C758   1.400       .  A
C757        H765   1.083       .  S
C758        H766   1.083       .  S
C759        C760   1.207       .  T
C761        C762   1.207       .  T
C767        C775   1.442       .  S
C767        C768   1.401       .  A
C767        C772   1.402       .  A
C768        C769   1.400       .  A
C768        H777   1.083       .  S
C769        C770   1.403       .  A
C769        H778   1.083       .  S
C770        C773   1.441       .  S
C770        C771   1.401       .  A
C771        C772   1.399       .  A
C771        H779   1.083       .  S
C772        H780   1.083       .  S
C773        C774   1.207       .  T
C775        C776   1.207       .  T
C781        C789   1.439       .  S
C781        C782   1.400       .  A
C781        C786   1.402       .  A
C782        C783   1.397       .  A
C782        H791   1.083       .  S
C783        C784   1.401       .  A
C783        H792   1.083       .  S
C784        C787   1.439       .  S
C784        C785   1.401       .  A
C785        C786   1.400       .  A
C785        H793   1.083       .  S
C786        H794   1.083       .  S
C787        C788   1.205       .  T
C789        C790   1.205       .  T
C795        C803   1.445       .  S
C795        C796   1.402       .  A
C795        C800   1.402       .  A
C796        C797   1.400       .  A
C796        H805   1.084       .  S
C797        C798   1.402       .  A
C797        H806   1.083       .  S
C798        C801   1.444       .  S
C798        C799   1.403       .  A
C799        C800   1.402       .  A
C799        H807   1.083       .  S
C800        H808   1.083       .  S
C801        C802   1.208       .  T
C803        C804   1.209       .  T
C809        C817   1.442       .  S
C809        C810   1.401       .  A
C809        C814   1.403       .  A
C810        C811   1.399       .  A
C810        H819   1.083       .  S
C811        C812   1.402       .  A
C811        H820   1.083       .  S
C812        C815   1.441       .  S
C812        C813   1.401       .  A
C813        C814   1.400       .  A
C813        H821   1.083       .  S
C814        H822   1.083       .  S
C815        C816   1.207       .  T
C817        C818   1.207       .  T
C823        C831   1.443       .  S
C823        C824   1.402       .  A
C823        C828   1.402       .  A
C824        C825   1.402       .  A
C824        H833   1.083       .  S
C825        C826   1.404       .  A
C825        H834   1.083       .  S
C826        C829   1.443       .  S
C826        C827   1.400       .  A
C827        C828   1.398       .  A
C827        H835   1.083       .  S
C828        H836   1.084       .  S
C829        C830   1.207       .  T
C831        C832   1.208       .  T
C837        C845   1.439       .  S
C837        C838   1.402       .  A
C837        C842   1.401       .  A
C838        C839   1.401       .  A
C838        H847   1.083       .  S
C839        C840   1.402       .  A
C839        H848   1.083       .  S
C840        C843   1.438       .  S
C840        C841   1.400       .  A
C841        C842   1.396       .  A
C841        H849   1.083       .  S
C842        H850   1.083       .  S
C843        C844   1.204       .  T
C845        C846   1.205       .  T
C851        C859   1.446       .  S
C851        C852   1.403       .  A
C851        C856   1.402       .  A
C852        C853   1.401       .  A
C852        H861   1.084       .  S
C853        C854   1.401       .  A
C853        H862   1.083       .  S
C854        C857   1.446       .  S
C854        C855   1.403       .  A
C855        C856   1.402       .  A
C855        H863   1.083       .  S
C856        H864   1.083       .  S
C857        C858   1.209       .  T
C859        C860   1.209       .  T
C865        C873   1.448       .  S
C865        C866   1.403       .  A
C865        C870   1.402       .  A
C866        C867   1.403       .  A
C866        H875   1.083       .  S
C867        C868   1.403       .  A
C867        H876   1.083       .  S
C868        C871   1.449       .  S
C868        C869   1.403       .  A
C869        C870   1.402       .  A
C869        H877   1.084       .  S
C870        H878   1.084       .  S
C871        C872   1.211       .  T
C873        C874   1.211       .  T
C879        C887   1.445       .  S
C879        C880   1.402       .  A
C879        C884   1.403       .  A
C880        C881   1.401       .  A
C880        H889   1.083       .  S
C881        C882   1.402       .  A
C881        H890   1.083       .  S
C882        C885   1.444       .  S
C882        C883   1.402       .  A
C883        C884   1.401       .  A
C883        H891   1.083       .  S
C884        H892   1.083       .  S
C885        C886   1.208       .  T
C887        C888   1.209       .  T
C893        C901   1.448       .  S
C893        C894   1.402       .  A
C893        C898   1.403       .  A
C894        C895   1.402       .  A
C894        H903   1.084       .  S
C895        C896   1.403       .  A
C895        H904   1.083       .  S
C896        C899   1.448       .  S
C896        C897   1.402       .  A
C897        C898   1.402       .  A
C897        H905   1.084       .  S
C898        H906   1.083       .  S
C899        C900   1.211       .  T
C901        C902   1.211       .  T
C907        C915   1.443       .  S
C907        C908   1.401       .  A
C907        C912   1.403       .  A
C908        C909   1.400       .  A
C908        H917   1.083       .  S
C909        C910   1.402       .  A
C909        H918   1.083       .  S
C910        C913   1.443       .  S
C910        C911   1.402       .  A
C911        C912   1.401       .  A
C911        H919   1.083       .  S
C912        H920   1.083       .  S
C913        C914   1.208       .  T
C915        C916   1.207       .  T
C921        C929   1.445       .  S
C921        C922   1.402       .  A
C921        C926   1.403       .  A
C922        C923   1.401       .  A
C922        H931   1.084       .  S
C923        C924   1.403       .  A
C923        H932   1.083       .  S
C924        C927   1.444       .  S
C924        C925   1.402       .  A
C925        C926   1.401       .  A
C925        H933   1.083       .  S
C926        H934   1.083       .  S
C927        C928   1.209       .  T
C929        C930   1.209       .  T
C935        C943   1.444       .  S
C935        C936   1.402       .  A
C935        C940   1.402       .  A
C936        C937   1.401       .  A
C936        H945   1.084       .  S
C937        C938   1.401       .  A
C937        H946   1.083       .  S
C938        C941   1.444       .  S
C938        C939   1.403       .  A
C939        C940   1.401       .  A
C939        H947   1.084       .  S
C940        H948   1.083       .  S
C941        C942   1.208       .  T
C943        C944   1.208       .  T
C949        C957   1.442       .  S
C949        C950   1.401       .  A
C949        C954   1.403       .  A
C950        C951   1.399       .  A
C950        H959   1.083       .  S
C951        C952   1.402       .  A
C951        H960   1.083       .  S
C952        C955   1.441       .  S
C952        C953   1.401       .  A
C953        C954   1.400       .  A
C953        H961   1.083       .  S
C954        H962   1.083       .  S
C955        C956   1.207       .  T
C957        C958   1.207       .  T
C963        C971   1.441       .  S
C963        C964   1.403       .  A
C963        C968   1.401       .  A
C964        C965   1.400       .  A
C964        H973   1.083       .  S
C965        C966   1.401       .  A
C965        H974   1.083       .  S
C966        C969   1.441       .  S
C966        C967   1.402       .  A
C967        C968   1.399       .  A
C967        H975   1.083       .  S
C968        H976   1.083       .  S
C969        C970   1.207       .  T
C971        C972   1.206       .  T
C977        C985   1.443       .  S
C977        C978   1.402       .  A
C977        C982   1.401       .  A
C978        C979   1.402       .  A
C978        H987   1.084       .  S
C979        C980   1.403       .  A
C979        H988   1.083       .  S
C980        C983   1.443       .  S
C980        C981   1.401       .  A
C981        C982   1.399       .  A
C981        H989   1.084       .  S
C982        H990   1.084       .  S
C983        C984   1.208       .  T
C985        C986   1.207       .  T
C991        C999   1.444       .  S
C991        C992   1.402       .  A
C991        C996   1.403       .  A
C992        C993   1.401       .  A
C992       H1001   1.083       .  S
C993        C994   1.403       .  A
C993       H1002   1.083       .  S
C994        C997   1.444       .  S
C994        C995   1.402       .  A
C995        C996   1.401       .  A
C995       H1003   1.083       .  S
C996       H1004   1.083       .  S
C997        C998   1.209       .  T
C999       C1000   1.208       .  T
C1005      C1013   1.443       .  S
C1005      C1006   1.402       .  A
C1005      C1010   1.402       .  A
C1006      C1007   1.401       .  A
C1006      H1015   1.083       .  S
C1007      C1008   1.403       .  A
C1007      H1016   1.083       .  S
C1008      C1011   1.444       .  S
C1008      C1009   1.401       .  A
C1009      C1010   1.400       .  A
C1009      H1017   1.083       .  S
C1010      H1018   1.084       .  S
C1011      C1012   1.208       .  T
C1013      C1014   1.208       .  T
C1019      C1027   1.444       .  S
C1019      C1020   1.402       .  A
C1019      C1024   1.402       .  A
C1020      C1021   1.401       .  A
C1020      H1029   1.083       .  S
C1021      C1022   1.403       .  A
C1021      H1030   1.084       .  S
C1022      C1025   1.444       .  S
C1022      C1023   1.401       .  A
C1023      C1024   1.400       .  A
C1023      H1031   1.083       .  S
C1024      H1032   1.084       .  S
C1025      C1026   1.208       .  T
C1027      C1028   1.209       .  T
C1033      C1041   1.440       .  S
C1033      C1034   1.401       .  A
C1033      C1038   1.401       .  A
C1034      C1035   1.398       .  A
C1034      H1043   1.083       .  S
C1035      C1036   1.400       .  A
C1035      H1044   1.083       .  S
C1036      C1039   1.439       .  S
C1036      C1037   1.403       .  A
C1037      C1038   1.400       .  A
C1037      H1045   1.084       .  S
C1038      H1046   1.083       .  S
C1039      C1040   1.205       .  T
C1041      C1042   1.206       .  T
C1047      C1055   1.443       .  S
C1047      C1048   1.402       .  A
C1047      C1052   1.402       .  A
C1048      C1049   1.401       .  A
C1048      H1057   1.083       .  S
C1049      C1050   1.403       .  A
C1049      H1058   1.083       .  S
C1050      C1053   1.443       .  S
C1050      C1051   1.400       .  A
C1051      C1052   1.399       .  A
C1051      H1059   1.083       .  S
C1052      H1060   1.083       .  S
C1053      C1054   1.207       .  T
C1055      C1056   1.208       .  T
C1061      C1069   1.442       .  S
C1061      C1062   1.403       .  A
C1061      C1066   1.401       .  A
C1062      C1063   1.401       .  A
C1062      H1071   1.083       .  S
C1063      C1064   1.402       .  A
C1063      H1072   1.083       .  S
C1064      C1067   1.443       .  S
C1064      C1065   1.402       .  A
C1065      C1066   1.399       .  A
C1065      H1073   1.083       .  S
C1066      H1074   1.083       .  S
C1067      C1068   1.207       .  T
C1069      C1070   1.207       .  T
C1075      C1083   1.448       .  S
C1075      C1076   1.403       .  A
C1075      C1080   1.402       .  A
C1076      C1077   1.403       .  A
C1076      H1085   1.084       .  S
C1077      C1078   1.403       .  A
C1077      H1086   1.084       .  S
C1078      C1081   1.448       .  S
C1078      C1079   1.403       .  A
C1079      C1080   1.402       .  A
C1079      H1087   1.083       .  S
C1080      H1088   1.084       .  S
C1081      C1082   1.211       .  T
C1083      C1084   1.210       .  T
C1089      C1097   1.444       .  S
C1089      C1090   1.403       .  A
C1089      C1094   1.401       .  A
C1090      C1091   1.402       .  A
C1090      H1099   1.083       .  S
C1091      C1092   1.402       .  A
C1091      H1100   1.083       .  S
C1092      C1095   1.443       .  S
C1092      C1093   1.402       .  A
C1093      C1094   1.400       .  A
C1093      H1101   1.083       .  S
C1094      H1102   1.083       .  S
C1095      C1096   1.208       .  T
C1097      C1098   1.208       .  T
C1103      C1111   1.444       .  S
C1103      C1104   1.403       .  A
C1103      C1108   1.401       .  A
C1104      C1105   1.402       .  A
C1104      H1113   1.084       .  S
C1105      C1106   1.402       .  A
C1105      H1114   1.083       .  S
C1106      C1109   1.442       .  S
C1106      C1107   1.402       .  A
C1107      C1108   1.399       .  A
C1107      H1115   1.084       .  S
C1108      H1116   1.083       .  S
C1109      C1110   1.207       .  T
C1111      C1112   1.208       .  T
C1117      C1125   1.447       .  S
C1117      C1118   1.403       .  A
C1117      C1122   1.403       .  A
C1118      C1119   1.403       .  A
C1118      H1127   1.084       .  S
C1119      C1120   1.403       .  A
C1119      H1128   1.083       .  S
C1120      C1123   1.447       .  S
C1120      C1121   1.402       .  A
C1121      C1122   1.401       .  A
C1121      H1129   1.084       .  S
C1122      H1130   1.083       .  S
C1123      C1124   1.210       .  T
C1125      C1126   1.210       .  T
C1131      C1139   1.442       .  S
C1131      C1132   1.402       .  A
C1131      C1136   1.402       .  A
C1132      C1133   1.401       .  A
C1132      H1141   1.083       .  S
C1133      C1134   1.402       .  A
C1133      H1142   1.083       .  S
C1134      C1137   1.443       .  S
C1134      C1135   1.401       .  A
C1135      C1136   1.399       .  A
C1135      H1143   1.083       .  S
C1136      H1144   1.083       .  S
C1137      C1138   1.207       .  T
C1139      C1140   1.207       .  T
C1145      C1153   1.439       .  S
C1145      C1146   1.400       .  A
C1145      C1150   1.402       .  A
C1146      C1147   1.399       .  A
C1146      H1155   1.083       .  S
C1147      C1148   1.402       .  A
C1147      H1156   1.084       .  S
C1148      C1151   1.440       .  S
C1148      C1149   1.400       .  A
C1149      C1150   1.399       .  A
C1149      H1157   1.083       .  S
C1150      H1158   1.084       .  S
C1151      C1152   1.206       .  T
C1153      C1154   1.205       .  T
C1159      C1167   1.440       .  S
C1159      C1160   1.402       .  A
C1159      C1164   1.401       .  A
C1160      C1161   1.399       .  A
C1160      H1169   1.083       .  S
C1161      C1162   1.401       .  A
C1161      H1170   1.083       .  S
C1162      C1165   1.440       .  S
C1162      C1163   1.402       .  A
C1163      C1164   1.399       .  A
C1163      H1171   1.083       .  S
C1164      H1172   1.083       .  S
C1165      C1166   1.206       .  T
C1167      C1168   1.206       .  T
C1173      C1181   1.448       .  S
C1173      C1174   1.403       .  A
C1173      C1178   1.403       .  A
C1174      C1175   1.402       .  A
C1174      H1183   1.084       .  S
C1175      C1176   1.402       .  A
C1175      H1184   1.083       .  S
C1176      C1179   1.447       .  S
C1176      C1177   1.403       .  A
C1177      C1178   1.402       .  A
C1177      H1185   1.084       .  S
C1178      H1186   1.083       .  S
C1179      C1180   1.210       .  T
C1181      C1182   1.211       .  T
C1187      C1195   1.447       .  S
C1187      C1188   1.402       .  A
C1187      C1192   1.403       .  A
C1188      C1189   1.402       .  A
C1188      H1197   1.083       .  S
C1189      C1190   1.403       .  A
C1189      H1198   1.084       .  S
C1190      C1193   1.447       .  S
C1190      C1191   1.402       .  A
C1191      C1192   1.402       .  A
C1191      H1199   1.083       .  S
C1192      H1200   1.083       .  S
C1193      C1194   1.210       .  T
C1195      C1196   1.210       .  T
C1201      C1209   1.439       .  S
C1201      C1202   1.401       .  A
C1201      C1206   1.401       .  A
C1202      C1203   1.400       .  A
C1202      H1211   1.083       .  S
C1203      C1204   1.402       .  A
C1203      H1212   1.083       .  S
C1204      C1207   1.439       .  S
C1204      C1205   1.401       .  A
C1205      C1206   1.398       .  A
C1205      H1213   1.083       .  S
C1206      H1214   1.083       .  S
C1207      C1208   1.205       .  T
C1209      C1210   1.205       .  T
C1215      C1223   1.443       .  S
C1215      C1216   1.401       .  A
C1215      C1220   1.403       .  A
C1216      C1217   1.400       .  A
C1216      H1225   1.083       .  S
C1217      C1218   1.403       .  A
C1217      H1226   1.084       .  S
C1218      C1221   1.443       .  S
C1218      C1219   1.402       .  A
C1219      C1220   1.401       .  A
C1219      H1227   1.083       .  S
C1220      H1228   1.083       .  S
C1221      C1222   1.208       .  T
C1223      C1224   1.208       .  T
C1229      C1237   1.449       .  S
C1229      C1230   1.403       .  A
C1229      C1234   1.403       .  A
C1230      C1231   1.402       .  A
C1230      H1239   1.084       .  S
C1231      C1232   1.402       .  A
C1231      H1240   1.083       .  S
C1232      C1235   1.448       .  S
C1232      C1233   1.403       .  A
C1233      C1234   1.403       .  A
C1233      H1241   1.084       .  S
C1234      H1242   1.083       .  S
C1235      C1236   1.211       .  T
C1237      C1238   1.211       .  T
C1243      C1251   1.442       .  S
C1243      C1244   1.401       .  A
C1243      C1248   1.402       .  A
C1244      C1245   1.400       .  A
C1244      H1253   1.083       .  S
C1245      C1246   1.403       .  A
C1245      H1254   1.083       .  S
C1246      C1249   1.443       .  S
C1246      C1247   1.401       .  A
C1247      C1248   1.400       .  A
C1247      H1255   1.083       .  S
C1248      H1256   1.083       .  S
C1249      C1250   1.207       .  T
C1251      C1252   1.207       .  T
C1257      C1265   1.441       .  S
C1257      C1258   1.402       .  A
C1257      C1262   1.401       .  A
C1258      C1259   1.401       .  A
C1258      H1267   1.084       .  S
C1259      C1260   1.402       .  A
C1259      H1268   1.083       .  S
C1260      C1263   1.441       .  S
C1260      C1261   1.401       .  A
C1261      C1262   1.398       .  A
C1261      H1269   1.084       .  S
C1262      H1270   1.083       .  S
C1263      C1264   1.207       .  T
C1265      C1266   1.206       .  T
C1271      C1279   1.440       .  S
C1271      C1272   1.401       .  A
C1271      C1276   1.402       .  A
C1272      C1273   1.400       .  A
C1272      H1281   1.083       .  S
C1273      C1274   1.403       .  A
C1273      H1282   1.083       .  S
C1274      C1277   1.439       .  S
C1274      C1275   1.400       .  A
C1275      C1276   1.398       .  A
C1275      H1283   1.083       .  S
C1276      H1284   1.083       .  S
C1277      C1278   1.205       .  T
C1279      C1280   1.206       .  T
C1285      C1293   1.443       .  S
C1285      C1286   1.403       .  A
C1285      C1290   1.401       .  A
C1286      C1287   1.401       .  A
C1286      H1295   1.083       .  S
C1287      C1288   1.402       .  A
C1287      H1296   1.083       .  S
C1288      C1291   1.443       .  S
C1288      C1289   1.402       .  A
C1289      C1290   1.400       .  A
C1289      H1297   1.083       .  S
C1290      H1298   1.083       .  S
C1291      C1292   1.208       .  T
C1293      C1294   1.208       .  T
C1299      C1307   1.445       .  S
C1299      C1300   1.402       .  A
C1299      C1304   1.402       .  A
C1300      C1301   1.400       .  A
C1300      H1309   1.084       .  S
C1301      C1302   1.401       .  A
C1301      H1310   1.083       .  S
C1302      C1305   1.444       .  S
C1302      C1303   1.403       .  A
C1303      C1304   1.401       .  A
C1303      H1311   1.084       .  S
C1304      H1312   1.083       .  S
C1305      C1306   1.208       .  T
C1307      C1308   1.209       .  T
C1313      C1321   1.442       .  S
C1313      C1314   1.402       .  A
C1313      C1318   1.401       .  A
C1314      C1315   1.400       .  A
C1314      H1323   1.083       .  S
C1315      C1316   1.401       .  A
C1315      H1324   1.083       .  S
C1316      C1319   1.441       .  S
C1316      C1317   1.402       .  A
C1317      C1318   1.400       .  A
C1317      H1325   1.083       .  S
C1318      H1326   1.083       .  S
C1319      C1320   1.206       .  T
C1321      C1322   1.207       .  T
C1327      C1335   1.442       .  S
C1327      C1328   1.403       .  A
C1327      C1332   1.400       .  A
C1328      C1329   1.401       .  A
C1328      H1337   1.083       .  S
C1329      C1330   1.401       .  A
C1329      H1338   1.083       .  S
C1330      C1333   1.442       .  S
C1330      C1331   1.402       .  A
C1331      C1332   1.399       .  A
C1331      H1339   1.083       .  S
C1332      H1340   1.084       .  S
C1333      C1334   1.207       .  T
C1335      C1336   1.207       .  T
C1341      C1349   1.443       .  S
C1341      C1342   1.401       .  A
C1341      C1346   1.403       .  A
C1342      C1343   1.400       .  A
C1342      H1351   1.083       .  S
C1343      C1344   1.402       .  A
C1343      H1352   1.084       .  S
C1344      C1347   1.443       .  S
C1344      C1345   1.402       .  A
C1345      C1346   1.401       .  A
C1345      H1353   1.083       .  S
C1346      H1354   1.084       .  S
C1347      C1348   1.207       .  T
C1349      C1350   1.208       .  T
C1355      C1363   1.442       .  S
C1355      C1356   1.402       .  A
C1355      C1360   1.402       .  A
C1356      C1357   1.399       .  A
C1356      H1365   1.083       .  S
C1357      C1358   1.401       .  A
C1357      H1366   1.083       .  S
C1358      C1361   1.441       .  S
C1358      C1359   1.402       .  A
C1359      C1360   1.401       .  A
C1359      H1367   1.083       .  S
C1360      H1368   1.083       .  S
C1361      C1362   1.206       .  T
C1363      C1364   1.207       .  T
C1369      C1377   1.441       .  S
C1369      C1370   1.402       .  A
C1369      C1374   1.401       .  A
C1370      C1371   1.400       .  A
C1370      H1379   1.083       .  S
C1371      C1372   1.401       .  A
C1371      H1380   1.083       .  S
C1372      C1375   1.442       .  S
C1372      C1373   1.402       .  A
C1373      C1374   1.399       .  A
C1373      H1381   1.083       .  S
C1374      H1382   1.083       .  S
C1375      C1376   1.207       .  T
C1377      C1378   1.207       .  T
C1383      C1391   1.447       .  S
C1383      C1384   1.402       .  A
C1383      C1388   1.403       .  A
C1384      C1385   1.401       .  A
C1384      H1393   1.084       .  S
C1385      C1386   1.402       .  A
C1385      H1394   1.083       .  S
C1386      C1389   1.447       .  S
C1386      C1387   1.403       .  A
C1387      C1388   1.403       .  A
C1387      H1395   1.084       .  S
C1388      H1396   1.083       .  S
C1389      C1390   1.210       .  T
C1391      C1392   1.210       .  T
C1397      C1405   1.440       .  S
C1397      C1398   1.401       .  A
C1397      C1402   1.402       .  A
C1398      C1399   1.399       .  A
C1398      H1407   1.083       .  S
C1399      C1400   1.402       .  A
C1399      H1408   1.083       .  S
C1400      C1403   1.440       .  S
C1400      C1401   1.401       .  A
C1401      C1402   1.400       .  A
C1401      H1409   1.083       .  S
C1402      H1410   1.083       .  S
C1403      C1404   1.206       .  T
C1405      C1406   1.206       .  T
C1411      C1419   1.441       .  S
C1411      C1412   1.401       .  A
C1411      C1416   1.403       .  A
C1412      C1413   1.399       .  A
C1412      H1421   1.084       .  S
C1413      C1414   1.402       .  A
C1413      H1422   1.083       .  S
C1414      C1417   1.441       .  S
C1414      C1415   1.401       .  A
C1415      C1416   1.400       .  A
C1415      H1423   1.084       .  S
C1416      H1424   1.083       .  S
C1417      C1418   1.207       .  T
C1419      C1420   1.207       .  T
C1425      C1433   1.446       .  S
C1425      C1426   1.402       .  A
C1425      C1430   1.403       .  A
C1426      C1427   1.401       .  A
C1426      H1435   1.083       .  S
C1427      C1428   1.403       .  A
C1427      H1436   1.084       .  S
C1428      C1431   1.445       .  S
C1428      C1429   1.401       .  A
C1429      C1430   1.401       .  A
C1429      H1437   1.083       .  S
C1430      H1438   1.083       .  S
C1431      C1432   1.209       .  T
C1433      C1434   1.210       .  T
C1439      C1447   1.439       .  S
C1439      C1440   1.402       .  A
C1439      C1444   1.400       .  A
C1440      C1441   1.399       .  A
C1440      H1449   1.083       .  S
C1441      C1442   1.400       .  A
C1441      H1450   1.083       .  S
C1442      C1445   1.439       .  S
C1442      C1443   1.402       .  A
C1443      C1444   1.399       .  A
C1443      H1451   1.083       .  S
C1444      H1452   1.083       .  S
C1445      C1446   1.205       .  T
C1447      C1448   1.205       .  T
C1453      C1461   1.445       .  S
C1453      C1454   1.401       .  A
C1453      C1458   1.403       .  A
C1454      C1455   1.400       .  A
C1454      H1463   1.083       .  S
C1455      C1456   1.403       .  A
C1455      H1464   1.084       .  S
C1456      C1459   1.445       .  S
C1456      C1457   1.402       .  A
C1457      C1458   1.402       .  A
C1457      H1465   1.083       .  S
C1458      H1466   1.084       .  S
C1459      C1460   1.209       .  T
C1461      C1462   1.209       .  T
C1467      C1475   1.444       .  S
C1467      C1468   1.401       .  A
C1467      C1472   1.403       .  A
C1468      C1469   1.401       .  A
C1468      H1477   1.083       .  S
C1469      C1470   1.403       .  A
C1469      H1478   1.083       .  S
C1470      C1473   1.444       .  S
C1470      C1471   1.402       .  A
C1471      C1472   1.401       .  A
C1471      H1479   1.083       .  S
C1472      H1480   1.083       .  S
C1473      C1474   1.209       .  T
C1475      C1476   1.208       .  T
C1481      C1489   1.440       .  S
C1481      C1482   1.403       .  A
C1481      C1486   1.400       .  A
C1482      C1483   1.400       .  A
C1482      H1491   1.083       .  S
C1483      C1484   1.401       .  A
C1483      H1492   1.083       .  S
C1484      C1487   1.440       .  S
C1484      C1485   1.402       .  A
C1485      C1486   1.398       .  A
C1485      H1493   1.083       .  S
C1486      H1494   1.083       .  S
C1487      C1488   1.206       .  T
C1489      C1490   1.206       .  T
C1495      C1503   1.442       .  S
C1495      C1496   1.401       .  A
C1495      C1500   1.403       .  A
C1496      C1497   1.399       .  A
C1496      H1505   1.083       .  S
C1497      C1498   1.403       .  A
C1497      H1506   1.084       .  S
C1498      C1501   1.442       .  S
C1498      C1499   1.401       .  A
C1499      C1500   1.401       .  A
C1499      H1507   1.083       .  S
C1500      H1508   1.083       .  S
C1501      C1502   1.207       .  T
C1503      C1504   1.207       .  T
C1509      C1517   1.442       .  S
C1509      C1510   1.403       .  A
C1509      C1514   1.401       .  A
C1510      C1511   1.401       .  A
C1510      H1519   1.083       .  S
C1511      C1512   1.401       .  A
C1511      H1520   1.083       .  S
C1512      C1515   1.443       .  S
C1512      C1513   1.403       .  A
C1513      C1514   1.399       .  A
C1513      H1521   1.083       .  S
C1514      H1522   1.083       .  S
C1515      C1516   1.207       .  T
C1517      C1518   1.207       .  T
C1523      C1531   1.443       .  S
C1523      C1524   1.401       .  A
C1523      C1528   1.402       .  A
C1524      C1525   1.401       .  A
C1524      H1533   1.083       .  S
C1525      C1526   1.403       .  A
C1525      H1534   1.083       .  S
C1526      C1529   1.443       .  S
C1526      C1527   1.401       .  A
C1527      C1528   1.400       .  A
C1527      H1535   1.083       .  S
C1528      H1536   1.083       .  S
C1529      C1530   1.207       .  T
C1531      C1532   1.208       .  T
