geometry optimzed in LAMMPS
_audit_creation_date              2020-12-01 
_audit_creation_method            'lammps2cif' 
_symmetry_space_group_name_H-M    'P1' 
_symmetry_Int_Tables_number       1 
_symmetry_cell_setting            triclinic 
loop_ 
_symmetry_equiv_pos_as_xyz 
  x,y,z 
_cell_length_a                    25.79461546 
_cell_length_b                    26.188959830470164 
_cell_length_c                    40.786980309771735 
_cell_angle_alpha                 89.94175952820058 
_cell_angle_beta                  89.90562267797347 
_cell_angle_gamma                 89.59882842524627 
loop_ 
_atom_site_label 
_atom_site_type_symbol 
_atom_site_fract_x 
_atom_site_fract_y 
_atom_site_fract_z 
_atom_site_charge 
O1          O  0.84798283  0.87111862  0.19453099    -0.82700
C2          C  0.63928914  0.82732741  0.17041303     0.96700
O3          O  0.67269867  0.79248428  0.17657042    -0.71800
O4          O  0.75524320  0.79293894  0.14022578    -0.75400
Al5        Al  0.74739818  0.79711176  0.18553442     1.49000
C6          C  0.78981616  0.81233372  0.12287177     0.91900
O7          O  0.75127571  0.93280478  0.13899866    -0.81600
O8          O  0.74239384  0.92986235  0.23670659    -0.75200
Al9        Al  0.79788414  0.89984421  0.16762648     1.90100
O10         O  0.69827967  0.95819318  0.17797969    -0.74200
O11         O  0.68234642  0.84828157  0.24097356    -0.74100
O12         O  0.64642033  0.87261181  0.17926994    -0.79700
O13         O  0.73970520  0.78905468  0.23053165    -0.77900
O14         O  0.74722479  0.86487404  0.18679928    -1.14100
O15         O  0.82214481  0.79131784  0.19427329    -0.73300
C16         C  0.85596202  0.82492755  0.20130254     0.97400
C17         C  0.71900595  0.96475842  0.15003157     0.93800
Al18       Al  0.69633454  0.89899927  0.20707934     1.55600
O19         O  0.81299866  0.85193018  0.13241017    -0.77900
C20         C  0.70642677  0.80804640  0.24925007     0.98000
C21         C  0.77567798  0.96126275  0.22666645     0.92900
O22         O  0.79588698  0.95604464  0.19847072    -0.83200
O23         O  0.64533036  0.64292207  0.44334767    -0.82700
C24         C  0.85452388  0.68530357  0.42170618     0.96700
O25         O  0.82113738  0.72017244  0.42800728    -0.71800
O26         O  0.74029249  0.72072833  0.39053383    -0.75400
Al27       Al  0.74624155  0.71621365  0.43585897     1.49000
C28         C  0.70719496  0.70072959  0.37240253     0.91900
O29         O  0.74369602  0.57943183  0.39017577    -0.81600
O30         O  0.74999096  0.58541309  0.48779217    -0.75200
Al31       Al  0.69636555  0.61346358  0.41769422     1.90100
O32         O  0.79522549  0.55477670  0.42973215    -0.74200
O33         O  0.81161980  0.66685011  0.99141062    -0.74100
O34         O  0.84652440  0.63994704  0.43012459    -0.79700
O35         O  0.75170730  0.72377558  0.48102322    -0.77900
O36         O  0.74629220  0.64857228  0.43718384    -1.14100
O37         O  0.67156338  0.72254173  0.44328452    -0.73300
C38         C  0.63740273  0.68911919  0.44986655     0.97400
C39         C  0.77552228  0.54743122  0.40158954     0.93800
Al40       Al  0.79668031  0.61481491  0.45808376     1.55600
O41         O  0.68364939  0.66098512  0.38164093    -0.77900
C42         C  0.78851906  0.70780808  0.99936186     0.98000
C43         C  0.71667543  0.55399934  0.47797233     0.92900
O44         O  0.69688913  0.55822993  0.44958325    -0.83200
O45         O  0.06985109  0.81359603  0.28973452    -0.82700
C46         C  0.19377580  0.64889048  0.33283117     0.96700
O47         O  0.15836904  0.64635828  0.31157048    -0.71800
O48         O  0.06889554  0.68529572  0.33294150    -0.75400
Al49       Al  0.11153771  0.69586412  0.29451503     1.49000
C50         C  0.04491992  0.71946352  0.34904525     0.91900
O51         O  0.14748330  0.79733876  0.37008319    -0.81600
O52         O  0.21592575  0.80884251  0.28329467    -0.75200
Al53       Al  0.11145810  0.80241134  0.32840006     1.90100
O54         O  0.22424590  0.79005889  0.34877277    -0.74200
O55         O  0.22462777  0.70859552  0.27397745    -0.74100
O56         O  0.21670063  0.69048108  0.33900337    -0.79700
O57         O  0.14782674  0.69973949  0.25317328    -0.77900
O58         O  0.14512882  0.74915617  0.31136484    -1.14100
O59         O  0.05864773  0.73419908  0.27480653    -0.73300
C60         C  0.04611526  0.78052045  0.27284769     0.97400
C61         C  0.19625301  0.79786716  0.37337648     0.93800
Al62       Al  0.21427293  0.74939968  0.31123710     1.55600
O63         O  0.05861549  0.76513777  0.34733123    -0.77900
C64         C  0.19648897  0.69930155  0.24977391     0.98000
C65         C  0.19259368  0.85037048  0.29017024     0.92900
O66         O  0.15778902  0.85165754  0.31193779    -0.83200
O67         O  0.42625483  0.69553030  0.03999060    -0.82700
C68         C  0.30029917  0.85602847  0.08679520     0.96700
O69         O  0.33354878  0.85922409  0.06423730    -0.71800
O70         O  0.42295174  0.82192143  0.08529221    -0.75400
Al71       Al  0.38089087  0.81134700  0.04680979     1.49000
C72         C  0.44747691  0.78845116  0.10172781     0.91900
O73         O  0.34882624  0.70444508  0.12013056    -0.81600
O74         O  0.27713882  0.69803571  0.03585789    -0.75200
Al75       Al  0.38432654  0.70355941  0.07877869     1.90100
O76         O  0.27067883  0.71461539  0.10126030    -0.74200
O77         O  0.26747138  0.79773928  0.02661302    -0.74100
O78         O  0.27671980  0.81462389  0.09248227    -0.79700
O79         O  0.34460047  0.80824383  0.50420223    -0.77900
O80         O  0.34873335  0.75697578  0.06327003    -1.14100
O81         O  0.43519276  0.77605101  0.02695832    -0.73300
C82         C  0.44934315  0.73044323  0.02440188     0.97400
C83         C  0.30041796  0.70389646  0.12453541     0.93800
Al84       Al  0.27920173  0.75631429  0.06399683     1.55600
O85         O  0.43636807  0.74198242  0.09922463    -0.77900
C86         C  0.29585423  0.80844443  0.50092931     0.98000
C87         C  0.30211523  0.65689569  0.04072438     0.92900
O88         O  0.33915257  0.65428587  0.06082290    -0.83200
O89         O  0.14966518  0.14264428  0.20029410    -0.82700
C90         C  0.35917246  0.18478454  0.17663965     0.96700
O91         O  0.32573135  0.21901840  0.18324080    -0.71800
O92         O  0.24353532  0.22225634  0.14726343    -0.75400
Al93       Al  0.25213910  0.21477144  0.19233177     1.49000
C94         C  0.20838984  0.20488837  0.12951263     0.91900
O95         O  0.24305824  0.08098330  0.14165906    -0.81600
O96         O  0.25416439  0.07599650  0.23872667    -0.75200
Al97       Al  0.19836133  0.11416066  0.17173817     1.90100
O98         O  0.29856074  0.05511113  0.17913711    -0.74200
O99         O  0.31510254  0.15669901  0.24628389    -0.74100
O100        O  0.35165391  0.13876577  0.18382947    -0.79700
O101        O  0.26142669  0.21989697  0.23739245    -0.77900
O102        O  0.25056018  0.14664321  0.19154556    -1.14100
O103        O  0.17864726  0.22180362  0.20182224    -0.73300
C104        C  0.14438278  0.18869421  0.20840536     0.97400
C105        C  0.27625420  0.04898390  0.15179943     0.93800
Al106      Al  0.30086588  0.11008279  0.21043774     1.55600
O107        O  0.18416872  0.16539607  0.13831922    -0.77900
C108        C  0.29353272  0.19773431  0.25545023     0.98000
C109        C  0.22124763  0.04552969  0.22716361     0.92900
O110        O  0.19958388  0.05469661  0.19996835    -0.83200
O111        O  0.34721947  0.36728159  0.44800265    -0.82700
C112        C  0.13683685  0.32367524  0.42929809     0.96700
O113        O  0.17187255  0.28991860  0.43335866    -0.71800
O114        O  0.25284519  0.28727453  0.39582571    -0.75400
Al115      Al  0.24584113  0.29395727  0.44122989     1.49000
C116        C  0.28827071  0.30423771  0.37801712     0.91900
O117        O  0.25112894  0.42577509  0.39051541    -0.81600
O118        O  0.24644429  0.43252841  0.48782929    -0.75200
Al119      Al  0.29791009  0.39458682  0.41999531     1.90100
O120        O  0.19808930  0.45321265  0.42908683    -0.74200
O121        O  0.18238355  0.35211835  0.99777899    -0.74100
O122        O  0.14475761  0.36949427  0.43681251    -0.79700
O123        O  0.23798420  0.28765708  0.48637948    -0.77900
O124        O  0.24694894  0.36189270  0.44085355    -1.14100
O125        O  0.32018299  0.28762459  0.44975351    -0.73300
C126        C  0.35397020  0.32139834  0.45628594     0.97400
C127        C  0.21875838  0.45834730  0.40097888     0.93800
Al128      Al  0.19794041  0.39843827  0.46113732     1.55600
O129        O  0.31266784  0.34344227  0.38681602    -0.77900
C130        C  0.20352673  0.31073544  0.00648736     0.98000
C131        C  0.27717461  0.46422315  0.47523426     0.92900
O132        O  0.29733576  0.45457787  0.44763894    -0.83200
O133        O  0.94486839  0.29934234  0.33142471    -0.82700
C134        C  0.81352084  0.14642131  0.29910090     0.96700
O135        O  0.86040357  0.15296454  0.30626865    -0.71800
O136        O  0.94773836  0.20280318  0.30685533    -0.75400
Al137      Al  0.88830958  0.19890217  0.33582145     1.49000
C138        C  0.95481953  0.22487937  0.27956714     0.91900
O139        O  0.83956127  0.31750978  0.26485500    -0.81600
O140        O  0.77778940  0.32332940  0.32787173    -0.75200
Al141      Al  0.88853860  0.30218088  0.29999528     1.90100
O142        O  0.77833387  0.26173194  0.27261725    -0.74200
O143        O  0.77903394  0.24119379  0.36269268    -0.74100
O144        O  0.77898128  0.17879540  0.30742552    -0.79700
O145        O  0.83784478  0.18201043  0.36940712    -0.77900
O146        O  0.85343088  0.25084806  0.31775185    -1.14100
O147        O  0.92018723  0.24109531  0.36696254    -0.73300
C148        C  0.94968487  0.27717871  0.35897763     0.97400
C149        C  0.79887647  0.29536304  0.25517405     0.93800
Al150      Al  0.78437846  0.25117310  0.31766752     1.55600
O151        O  0.92361357  0.25897858  0.27000945    -0.77900
C152        C  0.79835344  0.20604877  0.37951102     0.98000
C153        C  0.81192880  0.35568004  0.33579566     0.92900
O154        O  0.85867935  0.34948391  0.32826183    -0.83200
O155        O  0.55529639  0.20680157  0.07770592    -0.82700
C156        C  0.68077067  0.36760462  0.04973336     0.96700
O157        O  0.63488508  0.35939472  0.05870944    -0.71800
O158        O  0.55048177  0.30515603  0.05557395    -0.75400
Al159      Al  0.60799053  0.30880752  0.08589082     1.49000
C160        C  0.54418162  0.28380264  0.02800235     0.91900
O161        O  0.66091595  0.19278025  0.51453011    -0.81600
O162        O  0.72358886  0.19099027  0.07794482    -0.75200
Al163      Al  0.61268338  0.20759846  0.04741712     1.90100
O164        O  0.72232924  0.25103458  0.02173892    -0.74200
O165        O  0.72142641  0.27449051  0.11127153    -0.74100
O166        O  0.71635742  0.33478846  0.05517139    -0.79700
O167        O  0.65566541  0.32458060  0.12101813    -0.77900
O168        O  0.64563097  0.25971287  0.06656653    -1.14100
O169        O  0.57655150  0.26258731  0.11510136    -0.73300
C170        C  0.54756760  0.22717551  0.10542493     0.97400
C171        C  0.70123122  0.21519254  0.50485215     0.93800
Al172      Al  0.71481293  0.26263561  0.06652365     1.55600
O173        O  0.57613703  0.25057397  0.01812613    -0.77900
C174        C  0.69795462  0.30453607  0.12989770     0.98000
C175        C  0.69111004  0.15552341  0.08295006     0.92900
O176        O  0.64453632  0.15966434  0.07435095    -0.83200
C177        C  0.80491419  0.19786492  0.43986479    -0.27200
C178        C  0.77439753  0.19514269  0.41158605    -0.15300
C179        C  0.71991856  0.19032229  0.41475801     0.35400
C180        C  0.69687472  0.19256643  0.44579316    -0.26600
C181        C  0.72694294  0.20100706  0.47374759    -0.15900
C182        C  0.78166883  0.20102510  0.47103436     0.36500
N183        N  0.81494741  0.21224633  0.99789692    -0.90100
H184        H  0.84663218  0.20101225  0.43749638     0.17600
H185        H  0.65499039  0.19136087  0.44778159     0.17600
N186        N  0.68693546  0.18407844  0.38682472    -0.89200
H187        H  0.85413808  0.21286569  0.99133291     0.34900
H188        H  0.80977792  0.17990113  0.01256386     0.40000
H189        H  0.70043305  0.15284846  0.37323984     0.39700
H190        H  0.68868848  0.21677261  0.37222183     0.34500
C191        C  0.77526234  0.32106812  0.16444441    -0.27200
C192        C  0.72123916  0.31439728  0.16245233    -0.15300
C193        C  0.69247742  0.30817468  0.19149597     0.35400
C194        C  0.71880959  0.30469469  0.22164025    -0.26600
C195        C  0.77326906  0.30806347  0.22348762    -0.15900
C196        C  0.80156703  0.31827848  0.19466504     0.36500
N197        N  0.85699099  0.32280309  0.19583012    -0.90100
H198        H  0.79734111  0.32594370  0.14203727     0.17600
H199        H  0.69677503  0.29753564  0.24379920     0.17600
N200        N  0.63724771  0.30155472  0.19006562    -0.89200
H201        H  0.87191277  0.33027223  0.17247473     0.34900
H202        H  0.87188825  0.28730670  0.20291437     0.40000
H203        H  0.62099936  0.33597459  0.18192839     0.39700
H204        H  0.62215726  0.29507853  0.21349632     0.34500
C205        C  0.42225564  0.34782684  0.99542096    -0.27200
C206        C  0.40221531  0.30937251  0.47448454    -0.15300
C207        C  0.42788322  0.26162081  0.47310045     0.35400
C208        C  0.47528323  0.25509029  0.48940890    -0.26600
C209        C  0.49664766  0.29444614  0.00868543    -0.15900
C210        C  0.46969488  0.34123404  0.01165772     0.36500
N211        N  0.49067015  0.38207753  0.03095218    -0.90100
H212        H  0.40188681  0.38397784  0.99784297     0.17600
H213        H  0.49427910  0.21807622  0.48845002     0.17600
N214        N  0.40732570  0.21939464  0.45516619    -0.89200
H215        H  0.46568981  0.41369987  0.03093969     0.34900
H216        H  0.52491012  0.39377068  0.01956768     0.40000
H217        H  0.40179975  0.23065181  0.43081243     0.39700
H218        H  0.37153717  0.20962423  0.46535141     0.34500
C219        C  0.02099409  0.25065502  0.39609372    -0.27200
C220        C  0.99319817  0.29023069  0.38065553    -0.15300
C221        C  0.00997201  0.34077575  0.38400772     0.35400
C222        C  0.05588556  0.35076886  0.40098683    -0.26600
C223        C  0.08594625  0.31091650  0.41462807    -0.15900
C224        C  0.06725059  0.26043262  0.41311793     0.36500
N225        N  0.09532695  0.21931868  0.42849070    -0.90100
H226        H  0.00764391  0.21168100  0.39377695     0.17600
H227        H  0.06879615  0.38998126  0.40252261     0.17600
N228        N  0.98049345  0.38202940  0.37015996    -0.89200
H229        H  0.07658175  0.18456163  0.42466835     0.34900
H230        H  0.09471131  0.22584854  0.45377747     0.40000
H231        H  0.00433485  0.40169339  0.35376687     0.39700
H232        H  0.97029473  0.40705831  0.38909660     0.34500
C233        C  0.42276756  0.16440632  0.13355002    -0.27200
C234        C  0.40738804  0.19703861  0.15907538    -0.15300
C235        C  0.43955540  0.23766591  0.16832822     0.35400
C236        C  0.48650978  0.24507436  0.15148924    -0.26600
C237        C  0.50146543  0.21320899  0.12522679    -0.15900
C238        C  0.46926795  0.17191705  0.11647222     0.36500
N239        N  0.48340365  0.13793640  0.09019753    -0.90100
H240        H  0.39801199  0.13283591  0.12677589     0.17600
H241        H  0.51082914  0.27682569  0.15843578     0.17600
N242        N  0.42534860  0.27015586  0.19531979    -0.89200
H243        H  0.45465633  0.11062151  0.08640815     0.34900
H244        H  0.51669643  0.11796795  0.09747912     0.40000
H245        H  0.39281192  0.29141725  0.18821878     0.39700
H246        H  0.45463585  0.29655548  0.20000720     0.34500
C247        C  0.04791535  0.20068325  0.27754953    -0.27200
C248        C  0.00263028  0.21437386  0.26049047    -0.15300
C249        C  0.00504356  0.22166282  0.22618934     0.35400
C250        C  0.05274990  0.21571145  0.20983890    -0.26600
C251        C  0.09780577  0.20250406  0.22705678    -0.15900
C252        C  0.09542908  0.19467192  0.26134058     0.36500
N253        N  0.13995511  0.17972024  0.28041276    -0.90100
H254        H  0.04668030  0.19541181  0.30390652     0.17600
H255        H  0.05459022  0.21996356  0.18342269     0.17600
N256        N  0.95897182  0.23394099  0.20800750    -0.89200
H257        H  0.14738358  0.20904483  0.29709860     0.34900
H258        H  0.17322692  0.17587908  0.26603544     0.40000
H259        H  0.93387031  0.20290759  0.21003088     0.39700
H260        H  0.96741727  0.23812040  0.18307134     0.34500
C261        C  0.18190536  0.23480465  0.03980594    -0.27200
C262        C  0.19340427  0.28720197  0.03874589    -0.15300
C263        C  0.20328117  0.31343652  0.06809357     0.35400
C264        C  0.20458811  0.28593531  0.09774021    -0.26600
C265        C  0.19646251  0.23271082  0.09861950    -0.15900
C266        C  0.18277371  0.20730760  0.06948197     0.36500
N267        N  0.17331928  0.15329707  0.06966025    -0.90100
H268        H  0.17427212  0.21484049  0.01706790     0.17600
H269        H  0.21428424  0.30582071  0.12017473     0.17600
N270        N  0.21483984  0.36707710  0.06748829    -0.89200
H271        H  0.16651846  0.14014719  0.04586682     0.34900
H272        H  0.13902540  0.14729074  0.08275475     0.40000
H273        H  0.24962356  0.37173799  0.05465705     0.39700
H274        H  0.22129224  0.38059482  0.09123543     0.34500
C275        C  0.31719711  0.27348197  0.28854920    -0.27200
C276        C  0.30445314  0.22135879  0.28756879    -0.15300
C277        C  0.29334402  0.19563465  0.31694448     0.35400
C278        C  0.29153070  0.22326225  0.34644772    -0.26600
C279        C  0.30058780  0.27624416  0.34723924    -0.15900
C280        C  0.31626085  0.30110656  0.31820339     0.36500
N281        N  0.32795075  0.35467532  0.31845262    -0.90100
H282        H  0.32587712  0.29312277  0.26580648     0.17600
H283        H  0.28060403  0.20368021  0.36881066     0.17600
N284        N  0.28022022  0.14247849  0.31636817    -0.89200
H285        H  0.33640437  0.36744525  0.29475615     0.34900
H286        H  0.36188138  0.35929814  0.33208234     0.40000
H287        H  0.24529296  0.13964031  0.30362593     0.39700
H288        H  0.27306791  0.12908958  0.34009767     0.34500
C289        C  0.33612921  0.92861730  0.11687102    -0.27200
C290        C  0.29185592  0.90235182  0.10636747    -0.15300
C291        C  0.24254415  0.92444172  0.11060961     0.35400
C292        C  0.23869378  0.97348020  0.12449950    -0.26600
C293        C  0.28319946  0.00014143  0.13448230    -0.15900
C294        C  0.33236170  0.97701351  0.13126692     0.36500
N295        N  0.37836113  0.00339285  0.14140220    -0.90100
H296        H  0.37407341  0.91136362  0.11340105     0.17600
H297        H  0.20077081  0.99069668  0.12805180     0.17600
N298        N  0.19700027  0.89767669  0.10019227    -0.89200
H299        H  0.41153690  0.98270629  0.13470559     0.34900
H300        H  0.37844950  0.00452881  0.16700553     0.40000
H301        H  0.19894593  0.89375323  0.07470759     0.39700
H302        H  0.16370074  0.91929234  0.10522025     0.34500
C303        C  0.31571341  0.60051928  0.99343678    -0.27200
C304        C  0.28974354  0.61021634  0.02287960    -0.15300
C305        C  0.26059996  0.57141592  0.03779028     0.35400
C306        C  0.25722684  0.52365653  0.02273079    -0.26600
C307        C  0.28402338  0.51503840  0.49091829    -0.15900
C308        C  0.31226716  0.55507440  0.47576675     0.36500
N309        N  0.33985037  0.54689256  0.44553061    -0.90100
H310        H  0.33652026  0.63360205  0.47996748     0.17600
H311        H  0.23404606  0.49451951  0.03447950     0.17600
N312        N  0.23456816  0.57952621  0.06843326    -0.89200
H313        H  0.36188036  0.57891845  0.43943617     0.34900
H314        H  0.31226751  0.54330669  0.42694489     0.40000
H315        H  0.20913105  0.61049584  0.06570520     0.39700
H316        H  0.26216016  0.58910780  0.08609961     0.34500
C317        C  0.22465044  0.95087514  0.22569517    -0.27200
C318        C  0.21312462  0.99585454  0.24321520    -0.15300
C319        C  0.19706944  0.99242747  0.27603394     0.35400
C320        C  0.19282858  0.94467135  0.29079763    -0.26600
C321        C  0.20413969  0.89932790  0.27357093    -0.15900
C322        C  0.22023158  0.90241543  0.24054053     0.36500
N323        N  0.23089333  0.85677977  0.22207610    -0.90100
H324        H  0.23744363  0.95366748  0.20043450     0.17600
H325        H  0.17994039  0.94310655  0.31608711     0.17600
N326        N  0.18360810  0.03677352  0.29473009    -0.89200
H327        H  0.24277281  0.86593538  0.19827049     0.34900
H328        H  0.19612235  0.83680731  0.21979183     0.40000
H329        H  0.15498450  0.05720298  0.28205903     0.39700
H330        H  0.21652513  0.05939999  0.29660271     0.34500
C331        C  0.19279919  0.81776314  0.43371216    -0.27200
C332        C  0.22228628  0.80654318  0.40566888    -0.15300
C333        C  0.27696164  0.80158004  0.40909939     0.35400
C334        C  0.30016585  0.80565872  0.44003066    -0.26600
C335        C  0.27056519  0.81429618  0.46824080    -0.15900
C336        C  0.21621312  0.82213954  0.46485042     0.36500
N337        N  0.18297965  0.82389956  0.99388510    -0.90100
H338        H  0.15118980  0.82239528  0.43146870     0.17600
H339        H  0.34165187  0.79960692  0.44203780     0.17600
N340        N  0.30952650  0.79071822  0.38143806    -0.89200
H341        H  0.14390823  0.82542422  0.98714937     0.34900
H342        H  0.19193956  0.85975673  0.00351467     0.40000
H343        H  0.33699604  0.81973725  0.37948158     0.39700
H344        H  0.32916416  0.75633924  0.38588091     0.34500
C345        C  0.27715867  0.69759108  0.21634954    -0.27200
C346        C  0.22294520  0.69077042  0.21772623    -0.15300
C347        C  0.19609477  0.68044465  0.18845076     0.35400
C348        C  0.22317369  0.68182008  0.15846030    -0.26600
C349        C  0.27656193  0.69322830  0.15699910    -0.15900
C350        C  0.30404818  0.69962865  0.18648374     0.36500
N351        N  0.35850642  0.71093071  0.18615283    -0.90100
H352        H  0.29871645  0.70442943  0.23866067     0.17600
H353        H  0.20194244  0.67558143  0.13593331     0.17600
N354        N  0.14147705  0.66997864  0.18904125    -0.89200
H355        H  0.37318668  0.71249240  0.21001172     0.34900
H356        H  0.36272918  0.74757493  0.17634547     0.40000
H357        H  0.13644118  0.63553479  0.20160131     0.39700
H358        H  0.12752465  0.66419467  0.16528997     0.34500
C359        C  0.20175700  0.55160082  0.40063591    -0.27200
C360        C  0.21106164  0.50651706  0.38272539    -0.15300
C361        C  0.21884998  0.50957661  0.34859074     0.35400
C362        C  0.21551692  0.55708214  0.33289665    -0.26600
C363        C  0.20594858  0.60187022  0.35081294    -0.15900
C364        C  0.19925938  0.59933859  0.38499435     0.36500
N365        N  0.18867084  0.64497772  0.40349428    -0.90100
H366        H  0.19728800  0.54974572  0.42703497     0.17600
H367        H  0.21969730  0.55897308  0.30646795     0.17600
N368        N  0.22932440  0.46455651  0.32971278    -0.89200
H369        H  0.18515255  0.63651364  0.42845368     0.34900
H370        H  0.15265708  0.65928409  0.39594987     0.40000
H371        H  0.26489261  0.46934152  0.31780338     0.39700
H372        H  0.20056172  0.46134025  0.31181821     0.34500
C373        C  0.54847205  0.66430190  0.46745847    -0.27200
C374        C  0.58732987  0.70213184  0.46598730    -0.15300
C375        C  0.58228815  0.74939186  0.98740584     0.35400
C376        C  0.53590077  0.75676470  0.00489037    -0.26600
C377        C  0.49596887  0.72033454  0.00436085    -0.15900
C378        C  0.50223884  0.67188015  0.48509845     0.36500
N379        N  0.46375326  0.63250866  0.48660408    -0.90100
H380        H  0.55438872  0.62806463  0.45517849     0.17600
H381        H  0.53159772  0.79052910  0.02003764     0.17600
N382        N  0.62348952  0.78584927  0.99012969    -0.89200
H383        H  0.47610547  0.60013573  0.47371760     0.34900
H384        H  0.43073665  0.64623013  0.47456359     0.40000
H385        H  0.65409531  0.76802560  0.00255258     0.39700
H386        H  0.61201880  0.81682447  0.00465163     0.34500
C387        C  0.93816112  0.65409653  0.39785211    -0.27200
C388        C  0.90390828  0.69553895  0.40401853    -0.15300
C389        C  0.91699555  0.74426776  0.39217147     0.35400
C390        C  0.96386467  0.75050142  0.37523332    -0.26600
C391        C  0.99778787  0.70908729  0.36882152    -0.15900
C392        C  0.98462727  0.66026656  0.38026315     0.36500
N393        N  0.01811716  0.61722848  0.37403664    -0.90100
H394        H  0.92861549  0.61621624  0.40654252     0.17600
H395        H  0.97304664  0.78818206  0.36601465     0.17600
N396        N  0.88266891  0.78718011  0.39678924    -0.89200
H397        H  0.00221528  0.58379267  0.38367453     0.34900
H398        H  0.05280688  0.62335757  0.38661514     0.40000
H399        H  0.84977658  0.78089481  0.38242666     0.39700
H400        H  0.89939632  0.82069151  0.38786731     0.34500
C401        C  0.76576603  0.43826224  0.33985709    -0.27200
C402        C  0.79855081  0.40205841  0.35410767    -0.15300
C403        C  0.82466841  0.41348487  0.38349337     0.35400
C404        C  0.81765322  0.46158446  0.39806493    -0.26600
C405        C  0.78551579  0.49885178  0.38360331    -0.15900
C406        C  0.75952550  0.48686035  0.35389337     0.36500
N407        N  0.72781091  0.52419320  0.33752269    -0.90100
H408        H  0.74705319  0.42945110  0.31678688     0.17600
H409        H  0.83722914  0.46976615  0.42092315     0.17600
N410        N  0.85841020  0.37605906  0.39826874    -0.89200
H411        H  0.70943347  0.50832338  0.31714084     0.34900
H412        H  0.75307405  0.55170712  0.32834124     0.40000
H413        H  0.83572314  0.34484446  0.40507844     0.39700
H414        H  0.87481862  0.39032934  0.41978715     0.34500
C415        C  0.64858919  0.44595758  0.02123676    -0.27200
C416        C  0.69125286  0.41649303  0.03224996    -0.15300
C417        C  0.74189349  0.43424318  0.02588169     0.35400
C418        C  0.74842718  0.48043431  0.00875265    -0.26600
C419        C  0.70616362  0.50856624  0.49810573    -0.15900
C420        C  0.65528207  0.49137493  0.00374706     0.36500
N421        N  0.61024031  0.51925690  0.99327818    -0.90100
H422        H  0.60935815  0.43338101  0.02580678     0.17600
H423        H  0.78650878  0.50045366  0.51195338     0.17600
N424        N  0.78646963  0.40552126  0.03654737    -0.89200
H425        H  0.61040282  0.52141733  0.96770292     0.34900
H426        H  0.60900730  0.54834455  0.49413704     0.40000
H427        H  0.78679721  0.40621692  0.06217513     0.39700
H428        H  0.82067732  0.42311338  0.02886742     0.34500
C429        C  0.55747114  0.77826468  0.16363034    -0.27200
C430        C  0.59058387  0.81675317  0.15260464    -0.15300
C431        C  0.57438951  0.84840189  0.12620402     0.35400
C432        C  0.52613811  0.84068410  0.11139501    -0.26600
C433        C  0.49313236  0.80180435  0.12208172    -0.15900
C434        C  0.50889707  0.77076551  0.14879747     0.36500
N435        N  0.47546473  0.73177464  0.16116315    -0.90100
H436        H  0.56882639  0.75461886  0.18426524     0.17600
H437        H  0.51540194  0.86392703  0.09044191     0.17600
N438        N  0.60711063  0.88734165  0.11291498    -0.89200
H439        H  0.46846185  0.73925423  0.18595993     0.34900
H440        H  0.49508040  0.69680170  0.15951286     0.40000
H441        H  0.64292982  0.87094907  0.10680816     0.39700
H442        H  0.61278291  0.91557416  0.13057413     0.34500
C443        C  0.93486741  0.85259190  0.23161871    -0.27200
C444        C  0.90584445  0.81220560  0.21803193    -0.15300
C445        C  0.92566100  0.76209324  0.22045656     0.35400
C446        C  0.97276422  0.75356492  0.23700519    -0.26600
C447        C  0.00069271  0.79373590  0.25175107    -0.15900
C448        C  0.98192470  0.84406512  0.24817325     0.36500
N449        N  0.01005179  0.88634905  0.26163426    -0.90100
H450        H  0.92053565  0.89143599  0.22970193     0.17600
H451        H  0.98682602  0.71464999  0.23917538     0.17600
N452        N  0.89844267  0.71999987  0.20604445    -0.89200
H453        H  0.99023060  0.92071855  0.25751888     0.34900
H454        H  0.04511585  0.88892857  0.24885118     0.40000
H455        H  0.86484379  0.71419781  0.21988267     0.39700
H456        H  0.92021239  0.68631499  0.20801622     0.34500
C457        C  0.81269712  0.70952326  0.05892911    -0.27200
C458        C  0.79980741  0.73602757  0.03018487    -0.15300
C459        C  0.79240247  0.78973087  0.03182434     0.35400
C460        C  0.79367603  0.81494692  0.06218207    -0.26600
C461        C  0.80168782  0.78759965  0.09116081    -0.15900
C462        C  0.81318967  0.73461458  0.08934397     0.36500
N463        N  0.82490895  0.70524742  0.11809262    -0.90100
H464        H  0.81930440  0.66863824  0.05808948     0.17600
H465        H  0.78518346  0.85551759  0.06324807     0.17600
N466        N  0.78241085  0.81880590  0.00270201    -0.89200
H467        H  0.79264297  0.70531250  0.13357652     0.34900
H468        H  0.85573528  0.72262880  0.13028847     0.40000
H469        H  0.73908209  0.83476728  0.50690110     0.39700
H470        H  0.81100033  0.84673104  0.00063190     0.34500
C471        C  0.70023989  0.72748618  0.28113870    -0.27200
C472        C  0.69672773  0.78121306  0.28072997    -0.15300
C473        C  0.69068247  0.80754552  0.31060530     0.35400
C474        C  0.69054149  0.77969575  0.34022445    -0.26600
C475        C  0.69659312  0.72617298  0.34060531    -0.15900
C476        C  0.70043551  0.69996298  0.31058586     0.36500
N477        N  0.70882883  0.64597488  0.30937774    -0.90100
H478        H  0.70525040  0.70676681  0.25834126     0.17600
H479        H  0.68808871  0.80005433  0.36330650     0.17600
N480        N  0.68760414  0.86236704  0.31095263    -0.89200
H481        H  0.67774776  0.62806177  0.32103086     0.34900
H482        H  0.74274668  0.63788598  0.32241428     0.40000
H483        H  0.72306183  0.87635132  0.30247340     0.39700
H484        H  0.68318181  0.87575814  0.33494216     0.34500
C485        C  0.74889361  0.02552708  0.26845559    -0.27200
C486        C  0.78677841  0.00726492  0.24637093    -0.15300
C487        C  0.83211896  0.03590393  0.24118171     0.35400
C488        C  0.83859223  0.08183555  0.25812367    -0.26600
C489        C  0.80094041  0.10010404  0.28021812    -0.15900
C490        C  0.75521490  0.07203808  0.28518026     0.36500
N491        N  0.71619764  0.08989828  0.30769934    -0.90100
H492        H  0.71353851  0.00412297  0.27205553     0.17600
H493        H  0.87367008  0.10356573  0.25413695     0.17600
N494        N  0.87161342  0.01824487  0.21889872    -0.89200
H495        H  0.68629822  0.06332234  0.30971827     0.34900
H496        H  0.69952151  0.12284219  0.29763102     0.40000
H497        H  0.88713950  0.98445497  0.22854056     0.39700
H498        H  0.90209031  0.04428075  0.21755156     0.34500
C499        C  0.71917470  0.05917144  0.14933412    -0.27200
C500        C  0.71153689  0.01322275  0.13225523    -0.15300
C501        C  0.70226465  0.01442653  0.09822321     0.35400
C502        C  0.69847529  0.06181605  0.08223801    -0.26600
C503        C  0.70587958  0.10767104  0.09929653    -0.15900
C504        C  0.71671611  0.10654183  0.13309758     0.36500
N505        N  0.72395799  0.15338818  0.15084266    -0.90100
H506        H  0.72771481  0.05797752  0.17534684     0.17600
H507        H  0.68880331  0.06318261  0.05639420     0.17600
N508        N  0.69464265  0.96781855  0.08030872    -0.89200
H509        H  0.73201685  0.14582524  0.17549898     0.34900
H510        H  0.68892300  0.17371129  0.15036021     0.40000
H511        H  0.73013898  0.94839558  0.07944147     0.39700
H512        H  0.68479891  0.97572042  0.05596047     0.34500
O513        O  0.84814133  0.87054416  0.69468018    -0.82700
C514        C  0.63960345  0.82594787  0.66969780     0.96700
O515        O  0.67305846  0.79132260  0.67613145    -0.71800
O516        O  0.75599530  0.79167392  0.64035854    -0.75400
Al517      Al  0.74752900  0.79640655  0.68556155     1.49000
C518        C  0.79034186  0.81118222  0.62289398     0.91900
O519        O  0.75232455  0.93166845  0.63818143    -0.81600
O520        O  0.74134298  0.93101179  0.73554830    -0.75200
Al521      Al  0.79836375  0.89902734  0.66730749     1.90100
O522        O  0.69779012  0.95631076  0.67626537    -0.74200
O523        O  0.68229231  0.84909941  0.74052079    -0.74100
O524        O  0.64646046  0.87123452  0.67853476    -0.79700
O525        O  0.73897847  0.78896147  0.73057591    -0.77900
O526        O  0.74733963  0.86427296  0.68641606    -1.14100
O527        O  0.82211609  0.79081940  0.69472294    -0.73300
C528        C  0.85602002  0.82438835  0.70165644     0.97400
C529        C  0.71935912  0.96338375  0.64863144     0.93800
Al530      Al  0.69603799  0.89863241  0.70609513     1.55600
O531        O  0.81373285  0.85066837  0.63240456    -0.77900
C532        C  0.70594067  0.80883076  0.74911623     0.98000
C533        C  0.77480345  0.96218831  0.72549179     0.92900
O534        O  0.79600283  0.95598605  0.69767484    -0.83200
O535        O  0.64488616  0.64594332  0.94400626    -0.82700
C536        C  0.85438780  0.68606821  0.92060059     0.96700
O537        O  0.82133413  0.72131226  0.92671438    -0.71800
O538        O  0.73875576  0.72348021  0.89098267    -0.75400
Al539      Al  0.74675186  0.71819660  0.93608059     1.49000
C540        C  0.70563382  0.70354817  0.87288780     0.91900
O541        O  0.74157969  0.58126356  0.88994307    -0.81600
O542        O  0.74975929  0.58587586  0.98746337    -0.75200
Al543      Al  0.69518062  0.61588594  0.91794910     1.90100
O544        O  0.79419983  0.55651487  0.92892270    -0.74200
O545        O  0.81110392  0.66672676  0.49130188    -0.74100
O546        O  0.84644301  0.64102065  0.92973738    -0.79700
O547        O  0.75443004  0.72589456  0.98099973    -0.77900
O548        O  0.74598618  0.65038021  0.93724871    -1.14100
O549        O  0.67250261  0.72517193  0.94506697    -0.73300
C550        C  0.63793283  0.69201010  0.95137117     0.97400
C551        C  0.77409115  0.54948060  0.90087714     0.93800
Al552      Al  0.79636546  0.61580760  0.95773414     1.55600
O553        O  0.68237068  0.66365044  0.88207864    -0.77900
C554        C  0.78656504  0.70685805  0.49931977     0.98000
C555        C  0.71585018  0.55500066  0.97769818     0.92900
O556        O  0.69535474  0.56012062  0.94957954    -0.83200
O557        O  0.07090925  0.81295635  0.78951335    -0.82700
C558        C  0.19379550  0.64634658  0.83118170     0.96700
O559        O  0.15911719  0.64476551  0.80946576    -0.71800
O560        O  0.06982736  0.68387234  0.83154214    -0.75400
Al561      Al  0.11280691  0.69525218  0.79322074     1.49000
C562        C  0.04629146  0.71762702  0.84832521     0.91900
O563        O  0.14904846  0.79604488  0.86977605    -0.81600
O564        O  0.21923734  0.80817636  0.78418468    -0.75200
Al565      Al  0.11307224  0.80116931  0.82804941     1.90100
O566        O  0.22611710  0.78610013  0.84938772    -0.74200
O567        O  0.22616454  0.70838117  0.77294100    -0.74100
O568        O  0.21724984  0.68745484  0.83780205    -0.79700
O569        O  0.14925674  0.70041395  0.75203158    -0.77900
O570        O  0.14671207  0.74801711  0.81074477    -1.14100
O571        O  0.06010859  0.73387232  0.77401908    -0.73300
C572        C  0.04707262  0.78000855  0.77256905     0.97400
C573        C  0.19772348  0.79541683  0.87357932     0.93800
Al574      Al  0.21598401  0.74748915  0.81101536     1.55600
O575        O  0.06037648  0.76328264  0.84698752    -0.77900
C576        C  0.19791994  0.70026151  0.74858762     0.98000
C577        C  0.19566204  0.84968729  0.79077835     0.92900
O578        O  0.15947899  0.85068243  0.81165224    -0.83200
O579        O  0.42462509  0.69464360  0.53744378    -0.82700
C580        C  0.30269535  0.85749605  0.58575156     0.96700
O581        O  0.33623622  0.86021373  0.56333227    -0.71800
O582        O  0.42497309  0.82050231  0.58325042    -0.75400
Al583      Al  0.38193747  0.81149765  0.54510014     1.49000
C584        C  0.44901177  0.78642796  0.59943273     0.91900
O585        O  0.34878267  0.70493856  0.61803502    -0.81600
O586        O  0.27585815  0.70053020  0.53393586    -0.75200
Al587      Al  0.38353919  0.70335141  0.57651211     1.90100
O588        O  0.27051154  0.71636612  0.59958181    -0.74200
O589        O  0.26778794  0.80060581  0.52548481    -0.74100
O590        O  0.27826672  0.81647520  0.59123888    -0.79700
O591        O  0.34431698  0.80652682  0.00555656    -0.77900
O592        O  0.34884852  0.75769299  0.56143741    -1.14100
O593        O  0.43458134  0.77502883  0.52450152    -0.73300
C594        C  0.44790557  0.72921031  0.52165704     0.97400
C595        C  0.30044525  0.70539084  0.62271690     0.93800
Al596      Al  0.27930223  0.75840626  0.56248623     1.55600
O597        O  0.43693231  0.74024105  0.59675198    -0.77900
C598        C  0.29557107  0.80578621  0.00207361     0.98000
C599        C  0.30013607  0.65889393  0.53850913     0.92900
O600        O  0.33694381  0.65529904  0.55871402    -0.83200
O601        O  0.14961961  0.14087271  0.69993478    -0.82700
C602        C  0.35825886  0.18750058  0.67763231     0.96700
O603        O  0.32443753  0.22110196  0.68475019    -0.71800
O604        O  0.24418313  0.22130244  0.64694215    -0.75400
Al605      Al  0.25039544  0.21488146  0.69221540     1.49000
C606        C  0.20943906  0.20374043  0.62891385     0.91900
O607        O  0.24507294  0.08130804  0.64179621    -0.81600
O608        O  0.25537342  0.07676662  0.73903920    -0.75200
Al609      Al  0.19928857  0.11329677  0.67160181     1.90100
O610        O  0.30053320  0.05608755  0.67947087    -0.74200
O611        O  0.31415105  0.15942700  0.74637914    -0.74100
O612        O  0.35129461  0.14117397  0.68408818    -0.79700
O613        O  0.25701765  0.21971976  0.73754521    -0.77900
O614        O  0.25039408  0.14684651  0.69157847    -1.14100
O615        O  0.17623706  0.22081297  0.69988906    -0.73300
C616        C  0.14279185  0.18718024  0.70697306     0.97400
C617        C  0.27857883  0.04973283  0.65199810     0.93800
Al618      Al  0.30134295  0.11163095  0.71071030     1.55600
O619        O  0.18472205  0.16446874  0.63781319    -0.77900
C620        C  0.29048643  0.19941592  0.75560769     0.98000
C621        C  0.22340613  0.04530801  0.72750538     0.92900
O622        O  0.20167496  0.05375629  0.70016677    -0.83200
O623        O  0.34554719  0.36640414  0.94938386    -0.82700
C624        C  0.13594215  0.32282197  0.92832190     0.96700
O625        O  0.17060658  0.28894393  0.93325540    -0.71800
O626        O  0.25376602  0.28451352  0.89751603    -0.75400
Al627      Al  0.24413600  0.29304551  0.94271744     1.49000
C628        C  0.28760052  0.30351112  0.87933424     0.91900
O629        O  0.24965601  0.42532981  0.89159983    -0.81600
O630        O  0.24225891  0.43239026  0.98882629    -0.75200
Al631      Al  0.29600567  0.39393777  0.92135797     1.90100
O632        O  0.19580102  0.45269289  0.92962566    -0.74200
O633        O  0.18681304  0.35204852  0.49749412    -0.74100
O634        O  0.14318704  0.36855902  0.93631570    -0.79700
O635        O  0.23415208  0.28785990  0.98774904    -0.77900
O636        O  0.24488285  0.36115599  0.94188909    -1.14100
O637        O  0.31792508  0.28705867  0.95260204    -0.73300
C638        C  0.35209538  0.32076947  0.95829582     0.97400
C639        C  0.21667091  0.45754441  0.90162519     0.93800
Al640      Al  0.19497441  0.39790159  0.96147601     1.55600
O641        O  0.31060196  0.34354805  0.88799395    -0.77900
C642        C  0.20789849  0.31024716  0.50561518     0.98000
C643        C  0.27447110  0.46317124  0.97677970     0.92900
O644        O  0.29516295  0.45333542  0.94936397    -0.83200
O645        O  0.94470088  0.30101246  0.82851020    -0.82700
C646        C  0.81163048  0.14870928  0.79741602     0.96700
O647        O  0.85849924  0.15533216  0.80443241    -0.71800
O648        O  0.94535583  0.20470573  0.80396833    -0.75400
Al649      Al  0.88707620  0.20128583  0.83362454     1.49000
C650        C  0.95233382  0.22683863  0.77666861     0.91900
O651        O  0.83745379  0.32095622  0.76362134    -0.81600
O652        O  0.77735398  0.32653743  0.82561135    -0.75200
Al653      Al  0.88744675  0.30468637  0.79796668     1.90100
O654        O  0.77821712  0.26308453  0.77105205    -0.74200
O655        O  0.77854303  0.24488710  0.86091010    -0.74100
O656        O  0.77728993  0.18107821  0.80612590    -0.79700
O657        O  0.83708568  0.18533279  0.86764258    -0.77900
O658        O  0.85242767  0.25331855  0.81580841    -1.14100
O659        O  0.91992277  0.24333974  0.86435661    -0.73300
C660        C  0.94988919  0.27880961  0.85599002     0.97400
C661        C  0.79747305  0.29770129  0.75388216     0.93800
Al662      Al  0.78353859  0.25384005  0.81592155     1.55600
O663        O  0.92151974  0.26155291  0.76740856    -0.77900
C664        C  0.79798166  0.20994719  0.87782332     0.98000
C665        C  0.81173746  0.35841834  0.83405886     0.92900
O666        O  0.85857306  0.35161752  0.82691603    -0.83200
O667        O  0.55299581  0.20961060  0.57814338    -0.82700
C668        C  0.68109798  0.36735331  0.54962831     0.96700
O669        O  0.63495519  0.35937137  0.55800167    -0.71800
O670        O  0.55021251  0.30636593  0.55492729    -0.75400
Al671      Al  0.60740208  0.31015946  0.58545797     1.49000
C672        C  0.54432625  0.28436592  0.52749930     0.91900
O673        O  0.66185979  0.19525783  0.01280866    -0.81600
O674        O  0.72164340  0.19029310  0.57742846    -0.75200
Al675      Al  0.61100833  0.20809251  0.54847643     1.90100
O676        O  0.72012862  0.25063829  0.52139844    -0.74200
O677        O  0.72034012  0.27415687  0.61112893    -0.74100
O678        O  0.71649204  0.33449563  0.55532590    -0.79700
O679        O  0.65527296  0.32590261  0.62008005    -0.77900
O680        O  0.64450330  0.26033318  0.56670888    -1.14100
O681        O  0.57520553  0.26522950  0.61529458    -0.73300
C682        C  0.54570340  0.23013745  0.60583409     0.97400
C683        C  0.70270164  0.21749975  0.00400745     0.93800
Al684      Al  0.71369781  0.26229730  0.56634155     1.55600
O685        O  0.57604963  0.25047291  0.51817460    -0.77900
C686        C  0.69704059  0.30519991  0.62921952     0.98000
C687        C  0.68811427  0.15666957  0.58455879     0.92900
O688        O  0.64123879  0.16179656  0.57699458    -0.83200
C689        C  0.80551725  0.20341181  0.93806280    -0.27200
C690        C  0.77454369  0.19987919  0.91005558    -0.15300
C691        C  0.72014585  0.19503026  0.91354455     0.35400
C692        C  0.69766181  0.19693727  0.94471525    -0.26600
C693        C  0.72815431  0.20533439  0.97249855    -0.15900
C694        C  0.78283457  0.20652059  0.96936432     0.36500
N695        N  0.81324183  0.20580055  0.49987936    -0.90100
H696        H  0.84714651  0.20703507  0.93536240     0.17600
H697        H  0.65583148  0.19524409  0.94697736     0.17600
N698        N  0.68668649  0.18902137  0.88581009    -0.89200
H699        H  0.85258338  0.20543835  0.49366271     0.34900
H700        H  0.80689966  0.17351058  0.51440828     0.40000
H701        H  0.69998076  0.15796733  0.87198250     0.39700
H702        H  0.68811101  0.22189573  0.87135394     0.34500
C703        C  0.77130504  0.32940393  0.66429706    -0.27200
C704        C  0.71900978  0.31513036  0.66181621    -0.15300
C705        C  0.69150080  0.30119741  0.69012372     0.35400
C706        C  0.71767531  0.29896059  0.72019116    -0.26600
C707        C  0.77098099  0.30996725  0.72256321    -0.15900
C708        C  0.79765377  0.32720813  0.69450539     0.36500
N709        N  0.85170708  0.33976239  0.69631668    -0.90100
H710        H  0.79226861  0.33975541  0.64224376     0.17600
H711        H  0.69669580  0.28639088  0.74174710     0.17600
N712        N  0.63838882  0.28524641  0.68775198    -0.89200
H713        H  0.86525080  0.35217881  0.67350805     0.34900
H714        H  0.87203583  0.30617131  0.70175914     0.40000
H715        H  0.61625448  0.31707425  0.68087921     0.39700
H716        H  0.62444241  0.27362528  0.71063474     0.34500
C717        C  0.42446897  0.34901169  0.49290290    -0.27200
C718        C  0.40065164  0.30880930  0.97619801    -0.15300
C719        C  0.42755821  0.26188029  0.97333953     0.35400
C720        C  0.47533291  0.25539979  0.98927197    -0.26600
C721        C  0.49732472  0.29487862  0.50780767    -0.15900
C722        C  0.47145776  0.34234927  0.50954644     0.36500
N723        N  0.49308966  0.38380033  0.52798042    -0.90100
H724        H  0.40497958  0.38573988  0.49442057     0.17600
H725        H  0.49524540  0.21897196  0.98716280     0.17600
N726        N  0.40795122  0.22056497  0.95412819    -0.89200
H727        H  0.46874820  0.41587873  0.52718849     0.34900
H728        H  0.52751628  0.39419954  0.51635084     0.40000
H729        H  0.40183323  0.23357908  0.93019043     0.39700
H730        H  0.37252686  0.20911737  0.96408042     0.34500
C731        C  0.02057070  0.25129443  0.89322913    -0.27200
C732        C  0.99410775  0.29116646  0.87718174    -0.15300
C733        C  0.01249480  0.34125897  0.87974055     0.35400
C734        C  0.05810902  0.35054416  0.89714577    -0.26600
C735        C  0.08622806  0.31046518  0.91209100    -0.15900
C736        C  0.06653799  0.26037430  0.91069590     0.36500
N737        N  0.09314309  0.21900385  0.92679884    -0.90100
H738        H  0.00618501  0.21263510  0.89127889     0.17600
H739        H  0.07213228  0.38941731  0.89825524     0.17600
N740        N  0.98479236  0.38282011  0.86484150    -0.89200
H741        H  0.07381903  0.18456819  0.92293669     0.34900
H742        H  0.09168718  0.22601002  0.95201906     0.40000
H743        H  0.00973533  0.40100252  0.84839410     0.39700
H744        H  0.97485752  0.40895233  0.88321078     0.34500
C745        C  0.41912745  0.17027045  0.63286388    -0.27200
C746        C  0.40596960  0.20057162  0.65993661    -0.15300
C747        C  0.44033309  0.23834472  0.67082340     0.35400
C748        C  0.48697746  0.24593826  0.65359825    -0.26600
C749        C  0.49972209  0.21636745  0.62579328    -0.15900
C750        C  0.46565281  0.17722601  0.61584686     0.36500
N751        N  0.47804506  0.14463419  0.58852335    -0.90100
H752        H  0.39282834  0.14053294  0.62506487     0.17600
H753        H  0.51300803  0.27566134  0.66166578     0.17600
N754        N  0.42879152  0.26728722  0.69988930    -0.89200
H755        H  0.44803770  0.11896777  0.58396995     0.34900
H756        H  0.51035539  0.12261895  0.59514512     0.40000
H757        H  0.39654833  0.29037062  0.69487747     0.39700
H758        H  0.45927239  0.29194863  0.70537551     0.34500
C759        C  0.04291725  0.19511098  0.77425484    -0.27200
C760        C  0.99991664  0.21543335  0.75749028    -0.15300
C761        C  0.00497717  0.22816491  0.72391784     0.35400
C762        C  0.05302957  0.22073338  0.70812827    -0.26600
C763        C  0.09571236  0.20079555  0.72518045    -0.15900
C764        C  0.09069518  0.18792726  0.75869093     0.36500
N765        N  0.13299412  0.16745747  0.77774294    -0.90100
H766        H  0.03994709  0.18576885  0.80008424     0.17600
H767        H  0.05692252  0.22929652  0.68223817     0.17600
N768        N  0.96137917  0.24784108  0.70588710    -0.89200
H769        H  0.14083469  0.19349383  0.79647902     0.34900
H770        H  0.16709247  0.16408462  0.76409696     0.40000
H771        H  0.93340399  0.21916535  0.70508346     0.39700
H772        H  0.97177584  0.25553457  0.68159960     0.34500
C773        C  0.18605717  0.23367578  0.53867978    -0.27200
C774        C  0.19820081  0.28599773  0.53776155    -0.15300
C775        C  0.20789233  0.31195149  0.56720594     0.35400
C776        C  0.20780019  0.28448395  0.59685563    -0.26600
C777        C  0.19864021  0.23142295  0.59773802    -0.15900
C778        C  0.18547965  0.20618298  0.56842699     0.36500
N779        N  0.17476698  0.15241030  0.56858040    -0.90100
H780        H  0.17860484  0.21386410  0.51586319     0.17600
H781        H  0.21719208  0.30430081  0.61936618     0.17600
N782        N  0.22064416  0.36531813  0.56672475    -0.89200
H783        H  0.16816434  0.13937424  0.54473713     0.34900
H784        H  0.14006721  0.14722444  0.58139528     0.40000
H785        H  0.25583333  0.36920414  0.55422533     0.39700
H786        H  0.22684139  0.37870251  0.59052932     0.34500
C787        C  0.30207058  0.27834802  0.78828011    -0.27200
C788        C  0.30119116  0.22461391  0.78742106    -0.15300
C789        C  0.30396720  0.19719858  0.81707087     0.35400
C790        C  0.30217616  0.22406297  0.84699402    -0.26600
C791        C  0.29942189  0.27777968  0.84778491    -0.15900
C792        C  0.30219169  0.30522264  0.81813897     0.36500
N793        N  0.30164455  0.36010172  0.81834237    -0.90100
H794        H  0.30100743  0.29949186  0.76542655     0.17600
H795        H  0.30116986  0.20296524  0.86985828     0.17600
N796        N  0.30601212  0.14238968  0.81675409    -0.89200
H797        H  0.30148301  0.37436104  0.79439009     0.34900
H798        H  0.33641991  0.37207633  0.82886887     0.40000
H799        H  0.27107929  0.12963696  0.80693736     0.39700
H800        H  0.30808988  0.12806276  0.84065749     0.34500
C801        C  0.33890465  0.93023981  0.61581924    -0.27200
C802        C  0.29458534  0.90395129  0.60532652    -0.15300
C803        C  0.24526348  0.92583668  0.60994079     0.35400
C804        C  0.24139346  0.97451578  0.62429709    -0.26600
C805        C  0.28584630  0.00105518  0.63449411    -0.15900
C806        C  0.33506932  0.97826456  0.63080866     0.36500
N807        N  0.38099489  0.00459765  0.64110380    -0.90100
H808        H  0.37687497  0.91321125  0.61202047     0.17600
H809        H  0.20343340  0.99154823  0.62805278     0.17600
N810        N  0.19967272  0.89921539  0.59944660    -0.89200
H811        H  0.41420825  0.98401703  0.63434712     0.34900
H812        H  0.38098066  0.00550187  0.66671227     0.40000
H813        H  0.20137723  0.89588303  0.57392020     0.39700
H814        H  0.16636592  0.92062619  0.60480484     0.34500
C815        C  0.31370615  0.60334360  0.49079342    -0.27200
C816        C  0.28746427  0.61267688  0.52022042    -0.15300
C817        C  0.25916950  0.57330520  0.53516496     0.35400
C818        C  0.25730926  0.52527970  0.52037656    -0.26600
C819        C  0.28315714  0.51325405  0.99301043    -0.15900
C820        C  0.31268323  0.55261427  0.97811300     0.36500
N821        N  0.33966714  0.54421635  0.94768633    -0.90100
H822        H  0.33916448  0.63033120  0.98266089     0.17600
H823        H  0.23484388  0.49571362  0.53223939     0.17600
N824        N  0.23269015  0.58102067  0.56569427    -0.89200
H825        H  0.36275161  0.57559865  0.94179123     0.34900
H826        H  0.31176912  0.54199517  0.92919086     0.40000
H827        H  0.20656665  0.61139120  0.56278834     0.39700
H828        H  0.25986305  0.59130689  0.58345156     0.34500
C829        C  0.22939178  0.95055926  0.72673071    -0.27200
C830        C  0.21653236  0.99553765  0.74389989    -0.15300
C831        C  0.20056373  0.99211538  0.77677511     0.35400
C832        C  0.19646533  0.94427612  0.79162766    -0.26600
C833        C  0.20821963  0.89888163  0.77453333    -0.15900
C834        C  0.22553886  0.90210931  0.74173477     0.36500
N835        N  0.23801501  0.85656851  0.72361518    -0.90100
H836        H  0.24267309  0.95333865  0.70156779     0.17600
H837        H  0.18304791  0.94262560  0.81680348     0.17600
N838        N  0.18653867  0.03649684  0.79532474    -0.89200
H839        H  0.25087530  0.86579369  0.70002677     0.34900
H840        H  0.20381116  0.83586574  0.72071660     0.40000
H841        H  0.15730522  0.05612766  0.78270259     0.39700
H842        H  0.21887426  0.06003512  0.79692678     0.34500
C843        C  0.19277432  0.81179582  0.93432620    -0.27200
C844        C  0.22309394  0.80425123  0.90614609    -0.15300
C845        C  0.27793707  0.80280863  0.90974243     0.35400
C846        C  0.30059259  0.80625811  0.94093744    -0.26600
C847        C  0.27028328  0.81124718  0.96924096    -0.15900
C848        C  0.21555110  0.81585385  0.96568108     0.36500
N849        N  0.18470953  0.83376163  0.49303098    -0.90100
H850        H  0.15097478  0.81370783  0.93201480     0.17600
H851        H  0.34237186  0.80301127  0.94299118     0.17600
N852        N  0.31133822  0.79668964  0.88189654    -0.89200
H853        H  0.14572834  0.83764012  0.48643495     0.34900
H854        H  0.19634756  0.86932645  0.50190302     0.40000
H855        H  0.33645913  0.82782541  0.88104329     0.39700
H856        H  0.33358426  0.76357556  0.88529238     0.34500
C857        C  0.27804236  0.70198361  0.71461603    -0.27200
C858        C  0.22415687  0.69317152  0.71632995    -0.15300
C859        C  0.19725449  0.68169157  0.68724233     0.35400
C860        C  0.22395536  0.68306603  0.65712967    -0.26600
C861        C  0.27702321  0.69554221  0.65535277    -0.15900
C862        C  0.30454781  0.70393176  0.68460497     0.36500
N863        N  0.35859859  0.71699218  0.68383416    -0.90100
H864        H  0.29955785  0.71018183  0.73674965     0.17600
H865        H  0.20271943  0.67571962  0.63474363     0.17600
N866        N  0.14295542  0.66981658  0.68815324    -0.89200
H867        H  0.37335920  0.72034539  0.70759031     0.34900
H868        H  0.36161348  0.75316692  0.67314820     0.40000
H869        H  0.13898613  0.63542103  0.70092779     0.39700
H870        H  0.12887986  0.66335706  0.66450578     0.34500
C871        C  0.20263808  0.55102456  0.90025136    -0.27200
C872        C  0.20826377  0.50497396  0.88285242    -0.15300
C873        C  0.21176601  0.50614004  0.84843631     0.35400
C874        C  0.20905290  0.55308179  0.83199452    -0.26600
C875        C  0.20407788  0.59906487  0.84943811    -0.15900
C876        C  0.20059401  0.59815066  0.88386075     0.36500
N877        N  0.19369710  0.64487086  0.90191154    -0.90100
H878        H  0.20093843  0.55034583  0.92680386     0.17600
H879        H  0.21039056  0.55363839  0.80542686     0.17600
N880        N  0.21720754  0.45977097  0.83011457    -0.89200
H881        H  0.19216742  0.63753037  0.92709555     0.34900
H882        H  0.15764291  0.66036634  0.89546133     0.40000
H883        H  0.25118415  0.46214161  0.81620190     0.39700
H884        H  0.18593381  0.45729400  0.81393346     0.34500
C885        C  0.54755866  0.66937037  0.96698422    -0.27200
C886        C  0.58840081  0.70509767  0.96813949    -0.15300
C887        C  0.57873224  0.74908094  0.48198875     0.35400
C888        C  0.53199010  0.75696377  0.49890255    -0.26600
C889        C  0.49410656  0.71856969  0.50122793    -0.15900
C890        C  0.50158443  0.67646661  0.98496666     0.36500
N891        N  0.46053183  0.63973805  0.98328676    -0.90100
H892        H  0.55160865  0.63525740  0.95217166     0.17600
H893        H  0.52612104  0.79285959  0.51162497     0.17600
N894        N  0.61786103  0.78793202  0.48211064    -0.89200
H895        H  0.47100436  0.60928587  0.96803947     0.34900
H896        H  0.42875386  0.65774237  0.97223825     0.40000
H897        H  0.64906718  0.77410231  0.49592636     0.39700
H898        H  0.60451009  0.82070825  0.49416636     0.34500
C899        C  0.92884966  0.65327822  0.88750522    -0.27200
C900        C  0.90343268  0.69539667  0.90231702    -0.15300
C901        C  0.92631257  0.74382659  0.90011357     0.35400
C902        C  0.97405632  0.74880975  0.88386761    -0.26600
C903        C  0.99932089  0.70692528  0.86860948    -0.15900
C904        C  0.97624500  0.65843513  0.87068472     0.36500
N905        N  0.00021618  0.61479191  0.85541586    -0.90100
H906        H  0.91139786  0.61581361  0.88878710     0.17600
H907        H  0.99084182  0.78652841  0.88245065     0.17600
N908        N  0.90163581  0.78775684  0.91459540    -0.89200
H909        H  0.97727406  0.58234967  0.85839637     0.34900
H910        H  0.03493906  0.60739132  0.86778985     0.40000
H911        H  0.86837227  0.79582032  0.90086738     0.39700
H912        H  0.92524049  0.81988718  0.91247836     0.34500
C913        C  0.76501488  0.44088212  0.83861786    -0.27200
C914        C  0.79861646  0.40494552  0.85244550    -0.15300
C915        C  0.82568789  0.41682821  0.88143873     0.35400
C916        C  0.81807342  0.46462527  0.89631712    -0.26600
C917        C  0.78479566  0.50142683  0.88241374    -0.15900
C918        C  0.75868505  0.48944169  0.85276731     0.36500
N919        N  0.72710386  0.52690565  0.83644428    -0.90100
H920        H  0.74585330  0.43199056  0.81571150     0.17600
H921        H  0.83815525  0.47295226  0.91897634     0.17600
N922        N  0.86104825  0.38019702  0.89551404    -0.89200
H923        H  0.70874466  0.51114757  0.81601888     0.34900
H924        H  0.75258223  0.55424858  0.82729492     0.40000
H925        H  0.83950540  0.34841330  0.90272135     0.39700
H926        H  0.87818500  0.39481865  0.91670263     0.34500
C927        C  0.64982540  0.44166464  0.51748342    -0.27200
C928        C  0.69181270  0.41605377  0.53244849    -0.15300
C929        C  0.74157310  0.43786958  0.53084174     0.35400
C930        C  0.74812889  0.48409273  0.51377225    -0.26600
C931        C  0.70570325  0.50897061  0.99744711    -0.15900
C932        C  0.65645662  0.48706976  0.50022919     0.36500
N933        N  0.61184372  0.51076535  0.48563884    -0.90100
H934        H  0.61128638  0.42581512  0.51860090     0.17600
H935        H  0.78726553  0.49376955  0.00351946     0.17600
N936        N  0.78506102  0.41335263  0.54643195    -0.89200
H937        H  0.61649800  0.51125922  0.46020322     0.34900
H938        H  0.61221879  0.55629060  0.00273882     0.40000
H939        H  0.77836848  0.41398114  0.57172056     0.39700
H940        H  0.81897802  0.43408158  0.54238180     0.34500
C941        C  0.55938327  0.77484248  0.66119778    -0.27200
C942        C  0.59126937  0.81515931  0.65147946    -0.15300
C943        C  0.57438022  0.84788523  0.62576875     0.35400
C944        C  0.52673025  0.83944484  0.61040065    -0.26600
C945        C  0.49483982  0.79896316  0.61988956    -0.15900
C946        C  0.51128200  0.76673011  0.64587211     0.36500
N947        N  0.47897897  0.72599739  0.65707995    -0.90100
H948        H  0.57126034  0.75023861  0.68124745     0.17600
H949        H  0.51546056  0.86376002  0.59006734     0.17600
N950        N  0.60571387  0.88890393  0.61377240    -0.89200
H951        H  0.47138166  0.73177346  0.68199446     0.34900
H952        H  0.49974680  0.69177396  0.65470364     0.40000
H953        H  0.64238684  0.87444896  0.60770033     0.39700
H954        H  0.60953194  0.91642759  0.63209109     0.34500
C955        C  0.93739036  0.85204655  0.72951445    -0.27200
C956        C  0.90595949  0.81153567  0.71838755    -0.15300
C957        C  0.92327803  0.76099021  0.72346260     0.35400
C958        C  0.97044843  0.75236241  0.73989621    -0.26600
C959        C  0.00093213  0.79286345  0.75201224    -0.15900
C960        C  0.98447125  0.84335559  0.74606405     0.36500
N961        N  0.01516599  0.88567878  0.75694971    -0.90100
H962        H  0.92506015  0.89116943  0.72558492     0.17600
H963        H  0.98253333  0.71322056  0.74411443     0.17600
N964        N  0.89333231  0.71848642  0.71201542    -0.89200
H965        H  0.99706464  0.92035960  0.75113241     0.34900
H966        H  0.05001977  0.88471934  0.74382331     0.40000
H967        H  0.85993231  0.71658800  0.72650952     0.39700
H968        H  0.91331213  0.68411712  0.71580600     0.34500
C969        C  0.81254908  0.70913594  0.55849868    -0.27200
C970        C  0.79740744  0.73533925  0.53007289    -0.15300
C971        C  0.78824016  0.78875581  0.53194359     0.35400
C972        C  0.79074214  0.81397848  0.56225658    -0.26600
C973        C  0.80142968  0.78686017  0.59098709    -0.15900
C974        C  0.81395631  0.73415096  0.58890517     0.36500
N975        N  0.82751332  0.70495999  0.61740494    -0.90100
H976        H  0.82032961  0.66845276  0.55746639     0.17600
H977        H  0.78107508  0.85428733  0.56357798     0.17600
N978        N  0.77529255  0.81751496  0.50315433    -0.89200
H979        H  0.79599951  0.70458052  0.63349934     0.34900
H980        H  0.85860879  0.72283664  0.62901212     0.40000
H981        H  0.74659125  0.83727134  0.00545975     0.39700
H982        H  0.80272205  0.84639992  0.50034604     0.34500
C983        C  0.69637946  0.72928172  0.78153132    -0.27200
C984        C  0.69584470  0.78303247  0.78082674    -0.15300
C985        C  0.69238426  0.81012657  0.81056316     0.35400
C986        C  0.69186960  0.78280783  0.84037282    -0.26600
C987        C  0.69504658  0.72904289  0.84105979    -0.15900
C988        C  0.69611674  0.70224600  0.81115270     0.36500
N989        N  0.70139263  0.64790952  0.81015188    -0.90100
H990        H  0.69940248  0.70805115  0.75879362     0.17600
H991        H  0.69141646  0.80365415  0.86331704     0.17600
N992        N  0.69232141  0.86502407  0.81051919    -0.89200
H993        H  0.66972954  0.63185317  0.82229850     0.34900
H994        H  0.73522587  0.63826209  0.82281389     0.40000
H995        H  0.72813943  0.87696405  0.80135668     0.39700
H996        H  0.68961617  0.87903240  0.83445983     0.34500
C997        C  0.74547711  0.02943234  0.76467472    -0.27200
C998        C  0.78516353  0.00886283  0.74478136    -0.15300
C999        C  0.83207267  0.03555148  0.74145293     0.35400
C1000       C  0.83841915  0.08175020  0.75817843    -0.26600
C1001       C  0.79913962  0.10221450  0.77838698    -0.15900
C1002       C  0.75171152  0.07617596  0.78123642     0.36500
N1003       N  0.71069585  0.09632442  0.80142182    -0.90100
H1004       H  0.70890510  0.00955966  0.76669133     0.17600
H1005       H  0.87478625  0.10184993  0.75555229     0.17600
N1006       N  0.87336338  0.01548546  0.72141080    -0.89200
H1007       H  0.67946046  0.07111179  0.80208248     0.34900
H1008       H  0.69692233  0.12962807  0.79017184     0.40000
H1009       H  0.88609378  0.98140377  0.73218177     0.39700
H1010       H  0.90507517  0.04013503  0.72132584     0.34500
C1011       C  0.68807286  0.05303912  0.64808572    -0.27200
C1012       C  0.71087093  0.01216882  0.63082343    -0.15300
C1013       C  0.72928276  0.02058059  0.59846102     0.35400
C1014       C  0.72452114  0.06948274  0.58446266    -0.26600
C1015       C  0.70200896  0.10977638  0.60198640    -0.15900
C1016       C  0.68300280  0.10154040  0.63390289     0.36500
N1017       N  0.65883407  0.14263986  0.65183775    -0.90100
H1018       H  0.67442862  0.04740402  0.67295517     0.17600
H1019       H  0.73702807  0.07591148  0.55941725     0.17600
N1020       N  0.75141930  0.97955955  0.57952446    -0.89200
H1021       H  0.64871330  0.13072162  0.67545769     0.34900
H1022       H  0.62409110  0.15205836  0.64006934     0.40000
H1023       H  0.78851647  0.97228944  0.58876192     0.39700
H1024       H  0.75685630  0.99089369  0.55517728     0.34500
loop_ 
_geom_bond_atom_site_label_1 
_geom_bond_atom_site_label_2 
_geom_bond_distance 
_geom_bond_site_symmetry_2 
_ccdc_geom_bond_type 
O1           C16   1.256       .  A
O1           Al9   1.852       .  S
C2           O12   1.255       .  A
C2            O3   1.276       .  A
C2          C430   1.480       .  S
O3           Al5   1.966       .  S
O4            C6   1.248       .  A
O4           Al5   1.862       .  S
Al5          O13   1.858       .  S
Al5          O15   1.966       .  S
Al5          O14   1.775       .  S
C6           O19   1.263       .  A
C6          C461   1.478       .  S
O7           C17   1.259       .  A
O7           Al9   1.882       .  S
O8           C21   1.261       .  A
O8          Al18   1.883       .  S
Al9          O22   1.938       .  S
Al9          O19   1.945       .  S
Al9          O14   1.780       .  S
O10          C17   1.270       .  A
O10         Al18   1.952       .  S
O11          C20   1.265       .  A
O11         Al18   1.951       .  S
O12         Al18   1.855       .  S
O13          C20   1.249       .  A
O14         Al18   1.785       .  S
O15          C16   1.277       .  A
C16         C444   1.493       .  S
C17         C500   1.473   1_565  S
C20         C472   1.485       .  S
C21          O22   1.269       .  A
C21         C486   1.479   1_565  S
O23          C38   1.254       .  A
O23         Al31   1.845       .  S
C24          O34   1.255       .  A
C24          O25   1.277       .  A
C24         C388   1.489       .  S
O25         Al27   1.961       .  S
O26          C28   1.249       .  A
O26         Al27   1.859       .  S
Al27         O35   1.859       .  S
Al27         O37   1.955       .  S
Al27         O36   1.772       .  S
C28          O41   1.266       .  A
C28         C475   1.482       .  S
O29          C39   1.259       .  A
O29         Al31   1.878       .  S
O30          C43   1.260       .  A
O30         Al40   1.876       .  S
Al31         O44   1.944       .  S
Al31         O41   1.952       .  S
Al31         O36   1.777       .  S
O32          C39   1.271       .  A
O32         Al40   1.953       .  S
O33          C42   1.266       .  A
O33        Al552   1.960       .  S
O34         Al40   1.842       .  S
O35         C554   1.248       .  A
O36         Al40   1.784       .  S
O37          C38   1.274       .  A
C38         C374   1.486       .  S
C39         C405   1.490       .  S
Al40        O545   1.958       .  S
C42         O547   1.247       .  A
C42         C458   1.489   1_556  S
C43          O44   1.271       .  A
C43         C419   1.472       .  S
O45          C60   1.269       .  A
O45         Al53   1.930       .  S
C46          O56   1.269       .  A
C46          O47   1.263       .  A
C46         C363   1.465       .  S
O47         Al49   1.898       .  S
O48          C50   1.268       .  A
O48         Al49   1.934       .  S
Al49         O57   1.930       .  S
Al49         O59   1.870       .  S
Al49         O58   1.787       .  S
C50          O63   1.251       .  A
C50         C391   1.484   1_455  S
O51          C61   1.266       .  A
O51         Al53   1.943       .  S
O52          C65   1.271       .  A
O52         Al62   1.929       .  S
Al53         O66   1.887       .  S
Al53         O63   1.849       .  S
Al53         O58   1.779       .  S
O54          C61   1.251       .  A
O54         Al62   1.885       .  S
O55          C64   1.251       .  A
O55         Al62   1.876       .  S
O56         Al62   1.914       .  S
O57          C64   1.263       .  A
O58         Al62   1.784       .  S
O59          C60   1.256       .  A
C60         C447   1.493       .  S
C61         C332   1.498       .  S
C64         C346   1.490       .  S
C65          O66   1.262       .  A
C65         C321   1.481       .  S
O67          C82   1.265       .  A
O67         Al75   1.926       .  S
C68          O78   1.268       .  A
C68          O69   1.260       .  A
C68         C290   1.468       .  S
O69         Al71   1.883       .  S
O70          C72   1.269       .  A
O70         Al71   1.931       .  S
Al71         O81   1.858       .  S
Al71        O591   1.935       .  S
Al71         O80   1.783       .  S
C72          O85   1.256       .  A
C72         C433   1.486       .  S
O73          C83   1.261       .  A
O73         Al75   1.918       .  S
O74          C87   1.267       .  A
O74         Al84   1.912       .  S
Al75         O88   1.893       .  S
Al75         O85   1.880       .  S
Al75         O80   1.784       .  S
O76          C83   1.252       .  A
O76         Al84   1.884       .  S
O77         C598   1.253       .  A
O77         Al84   1.894       .  S
O78         Al84   1.920       .  S
O79          C86   1.265       .  A
O79        Al583   1.930       .  S
O80         Al84   1.794       .  S
O81          C82   1.251       .  A
C82         C377   1.476       .  S
C83         C349   1.486       .  S
C86         O589   1.252       .  A
C86         C335   1.493       .  S
C87          O88   1.261       .  A
C87         C304   1.461       .  S
O89         C104   1.257       .  A
O89         Al97   1.864       .  S
C90         O100   1.256       .  A
C90          O91   1.269       .  A
C90         C234   1.471       .  S
O91         Al93   1.937       .  S
O92          C94   1.250       .  A
O92         Al93   1.862       .  S
Al93        O101   1.859       .  S
Al93        O103   1.942       .  S
Al93        O102   1.785       .  S
C94         O107   1.264       .  A
C94         C265   1.486       .  S
O95         C105   1.264       .  A
O95         Al97   1.890       .  S
O96         C109   1.262       .  A
O96        Al106   1.894       .  S
Al97        O110   1.936       .  S
Al97        O107   1.945       .  S
Al97        O102   1.792       .  S
O98         C105   1.266       .  A
O98        Al106   1.926       .  S
O99         C108   1.263       .  A
O99        Al106   1.943       .  S
O100       Al106   1.862       .  S
O101        C108   1.249       .  A
O102       Al106   1.783       .  S
O103        C104   1.271       .  A
C104        C251   1.464       .  S
C105        C293   1.472       .  S
C108        C276   1.478       .  S
C109        O110   1.265       .  A
C109        C318   1.472   1_545  S
O111        C126   1.259       .  A
O111       Al119   1.851       .  S
C112        O122   1.257       .  A
C112        O113   1.271       .  A
C112        C223   1.484       .  S
O113       Al115   1.939       .  S
O114        C116   1.250       .  A
O114       Al115   1.869       .  S
Al115       O123   1.860       .  S
Al115       O125   1.955       .  S
Al115       O124   1.780       .  S
C116        O129   1.261       .  A
C116        C279   1.487       .  S
O117        C127   1.264       .  A
O117       Al119   1.886       .  S
O118        C131   1.260       .  A
O118       Al128   1.889       .  S
Al119       O132   1.935       .  S
Al119       O129   1.940       .  S
Al119       O124   1.788       .  S
O120        C127   1.271       .  A
O120       Al128   1.940       .  S
O121        C130   1.261   1_556  A
O121       Al640   1.933       .  S
O122       Al128   1.860       .  S
O123        C642   1.249       .  A
O124       Al128   1.783       .  S
O125        C126   1.275       .  A
C126        C206   1.482       .  S
C127        C360   1.477       .  S
Al128       O633   1.938       .  S
C130        O635   1.249   1_554  A
C130        C262   1.476       .  S
C131        O132   1.264       .  A
C131        C307   1.489       .  S
O133        C148   1.270       .  A
O133       Al141   1.940       .  S
C134        O144   1.272       .  A
C134        O135   1.258       .  A
C134        C489   1.476       .  S
O135       Al137   1.854       .  S
O136        C138   1.267       .  A
O136       Al137   1.937       .  S
Al137       O145   1.941       .  S
Al137       O147   1.879       .  S
Al137       O146   1.785       .  S
C138        O151   1.260       .  A
C138        C248   1.481   1_655  S
O139        C149   1.266       .  A
O139       Al141   1.952       .  S
O140        C153   1.269       .  A
O140       Al150   1.942       .  S
Al141       O154   1.856       .  S
Al141       O151   1.892       .  S
Al141       O146   1.779       .  S
O142        C149   1.252       .  A
O142       Al150   1.864       .  S
O143        C152   1.249       .  A
O143       Al150   1.860       .  S
O144       Al150   1.947       .  S
O145        C152   1.263       .  A
O146       Al150   1.781       .  S
O147        C148   1.260       .  A
C148        C220   1.472       .  S
C149        C195   1.489       .  S
C152        C178   1.474       .  S
C153        O154   1.253       .  A
C153        C402   1.465       .  S
O155        C170   1.266       .  A
O155       Al163   1.927       .  S
C156        O166   1.273       .  A
C156        O157   1.258       .  A
C156        C416   1.491       .  S
O157       Al159   1.864       .  S
O158        C160   1.268       .  A
O158       Al159   1.936       .  S
Al159       O167   1.936       .  S
Al159       O169   1.884       .  S
Al159       O168   1.789       .  S
C160        O173   1.260       .  A
C160        C209   1.483       .  S
O161        C171   1.260       .  A
O161       Al675   1.930       .  S
O162        C175   1.271       .  A
O162       Al172   1.945       .  S
Al163       O176   1.856       .  S
Al163       O173   1.889       .  S
Al163       O673   1.922       .  S
Al163       O168   1.793       .  S
O164        C683   1.249       .  A
O164       Al172   1.862       .  S
O165        C174   1.247       .  A
O165       Al172   1.860       .  S
O166       Al172   1.946       .  S
O167        C174   1.261       .  A
O168       Al172   1.787       .  S
O169        C170   1.259       .  A
C170        C237   1.484       .  S
C171        O676   1.250       .  A
C171        C181   1.477       .  S
C174        C192   1.482       .  S
C175        O176   1.256       .  A
C175        C503   1.467       .  S
C177        C178   1.400       .  A
C177        C182   1.407       .  A
C177        H184   1.084       .  S
C178        C179   1.417       .  A
C179        C180   1.399       .  A
C179        N186   1.433       .  S
C180        C181   1.399       .  A
C180        H185   1.084       .  S
C181        C182   1.416       .  A
C182        N695   1.438       .  S
N183        C694   1.438       .  S
N183        H187   1.046       .  S
N183        H188   1.046   1_556  S
N186        H189   1.046       .  S
N186        H190   1.044       .  S
C191        C192   1.408       .  A
C191        C196   1.410       .  A
C191        H198   1.084       .  S
C192        C193   1.407       .  A
C193        C194   1.408       .  A
C193        N200   1.438       .  S
C194        C195   1.410       .  A
C194        H199   1.084       .  S
C195        C196   1.409       .  A
C196        N197   1.436       .  S
N197        H201   1.046       .  S
N197        H202   1.044       .  S
N200        H203   1.045       .  S
N200        H204   1.045       .  S
C205        C210   1.402   1_556  A
C205        C718   1.407       .  A
C205        H212   1.084       .  S
C206        C207   1.412       .  A
C206        C717   1.408       .  A
C207        C208   1.402       .  A
C207        N214   1.432       .  S
C208        C721   1.408       .  A
C208        H213   1.084       .  S
C209        C210   1.410       .  A
C209        C720   1.409   1_554  A
C210        N211   1.438       .  S
N211        H215   1.046       .  S
N211        H216   1.045       .  S
N214        H217   1.046       .  S
N214        H218   1.045       .  S
C219        C220   1.405   1_455  A
C219        C224   1.407       .  A
C219        H226   1.084       .  S
C220        C221   1.402   1_655  A
C221        C222   1.399       .  A
C221        N228   1.433   1_455  S
C222        C223   1.410       .  A
C222        H227   1.084       .  S
C223        C224   1.412       .  A
C224        N225   1.437       .  S
N225        H229   1.046       .  S
N225        H230   1.046       .  S
N228        H231   1.045   1_655  S
N228        H232   1.046       .  S
C233        C234   1.403       .  A
C233        C238   1.401       .  A
C233        H240   1.084       .  S
C234        C235   1.406       .  A
C235        C236   1.406       .  A
C235        N242   1.438       .  S
C236        C237   1.410       .  A
C236        H241   1.083       .  S
C237        C238   1.415       .  A
C238        N239   1.439       .  S
N239        H243   1.046       .  S
N239        H244   1.046       .  S
N242        H245   1.045       .  S
N242        H246   1.046       .  S
C247        C248   1.405       .  A
C247        C252   1.400       .  A
C247        H254   1.084       .  S
C248        C249   1.413       .  A
C249        C250   1.406       .  A
C249        N256   1.436   1_455  S
C250        C251   1.400       .  A
C250        H255   1.084       .  S
C251        C252   1.414       .  A
C252        N253   1.440       .  S
N253        H257   1.046       .  S
N253        H258   1.043       .  S
N256        H259   1.046       .  S
N256        H260   1.046       .  S
C261        C262   1.407       .  A
C261        C266   1.408       .  A
C261        H268   1.084       .  S
C262        C263   1.405       .  A
C263        C264   1.407       .  A
C263        N270   1.438       .  S
C264        C265   1.411       .  A
C264        H269   1.084       .  S
C265        C266   1.409       .  A
C266        N267   1.437       .  S
N267        H271   1.046       .  S
N267        H272   1.045       .  S
N270        H273   1.046       .  S
N270        H274   1.046       .  S
C275        C276   1.407       .  A
C275        C280   1.410       .  A
C275        H282   1.084       .  S
C276        C277   1.404       .  A
C277        C278   1.405       .  A
C277        N284   1.435       .  S
C278        C279   1.409       .  A
C278        H283   1.084       .  S
C279        C280   1.411       .  A
C280        N281   1.437       .  S
N281        H285   1.046       .  S
N281        H286   1.045       .  S
N284        H287   1.044       .  S
N284        H288   1.046       .  S
C289        C290   1.405       .  A
C289        C294   1.400       .  A
C289        H296   1.084       .  S
C290        C291   1.404       .  A
C291        C292   1.407       .  A
C291        N298   1.437       .  S
C292        C293   1.409   1_565  A
C292        H297   1.084       .  S
C293        C294   1.407   1_545  A
C294        N295   1.439   1_565  S
N295        H299   1.046   1_545  S
N295        H300   1.045       .  S
N298        H301   1.046       .  S
N298        H302   1.046       .  S
C303        C304   1.397   1_556  A
C303        C820   1.405       .  A
C303        H822   1.083       .  S
C304        C305   1.406       .  A
C305        C306   1.397       .  A
C305        N312   1.433       .  S
C306        C819   1.409   1_554  A
C306        H311   1.084       .  S
C307        C308   1.421       .  A
C307        C818   1.409       .  A
C308        C815   1.406       .  A
C308        N309   1.438       .  S
N309        H313   1.046       .  S
N309        H314   1.045       .  S
H310        C815   1.084       .  S
N312        H315   1.046       .  S
N312        H316   1.046       .  S
C317        C318   1.408       .  A
C317        C322   1.411       .  A
C317        H324   1.084       .  S
C318        C319   1.403       .  A
C319        C320   1.392       .  A
C319        N326   1.430   1_565  S
C320        C321   1.409       .  A
C320        H325   1.084       .  S
C321        C322   1.411       .  A
C322        N323   1.438       .  S
N323        H327   1.046       .  S
N323        H328   1.046       .  S
N326        H329   1.046       .  S
N326        H330   1.042       .  S
C331        C332   1.403       .  A
C331        C336   1.412       .  A
C331        H338   1.083       .  S
C332        C333   1.423       .  A
C333        C334   1.402       .  A
C333        N340   1.433       .  S
C334        C335   1.398       .  A
C334        H339   1.084       .  S
C335        C336   1.422       .  A
C336        N849   1.438       .  S
N337        C848   1.438       .  S
N337        H341   1.046       .  S
N337        H342   1.046   1_556  S
N340        H343   1.046       .  S
N340        H344   1.046       .  S
C345        C346   1.412       .  A
C345        C350   1.402       .  A
C345        H352   1.083       .  S
C346        C347   1.409       .  A
C347        C348   1.408       .  A
C347        N354   1.437       .  S
C348        C349   1.412       .  A
C348        H353   1.084       .  S
C349        C350   1.408       .  A
C350        N351   1.438       .  S
N351        H355   1.046       .  S
N351        H356   1.046       .  S
N354        H357   1.046       .  S
N354        H358   1.046       .  S
C359        C360   1.408       .  A
C359        C364   1.404       .  A
C359        H366   1.084       .  S
C360        C361   1.409       .  A
C361        C362   1.401       .  A
C361        N368   1.433       .  S
C362        C363   1.403       .  A
C362        H367   1.084       .  S
C363        C364   1.406       .  A
C364        N365   1.438       .  S
N365        H369   1.046       .  S
N365        H370   1.046       .  S
N368        H371   1.046       .  S
N368        H372   1.045       .  S
C373        C374   1.415       .  A
C373        C378   1.405       .  A
C373        H380   1.083       .  S
C374        C887   1.409       .  A
C375        C376   1.404   1_556  A
C375        C886   1.410       .  A
C375        N382   1.438       .  S
C376        C377   1.409       .  A
C376        H381   1.084       .  S
C377        C890   1.402   1_554  A
C378        C889   1.403       .  A
C378        N379   1.438       .  S
N379        H383   1.046       .  S
N379        H384   1.045       .  S
N382        H385   1.046   1_556  S
N382        H386   1.046   1_556  S
C387        C388   1.417       .  A
C387        C392   1.406       .  A
C387        H394   1.083       .  S
C388        C389   1.407       .  A
C389        C390   1.402       .  A
C389        N396   1.438       .  S
C390        C391   1.413       .  A
C390        H395   1.083       .  S
C391        C392   1.404       .  A
C392        N393   1.438   1_655  S
N393        H397   1.046       .  S
N393        H398   1.046       .  S
N396        H399   1.046       .  S
N396        H400   1.045       .  S
C401        C402   1.393       .  A
C401        C406   1.404       .  A
C401        H408   1.084       .  S
C402        C403   1.409       .  A
C403        C404   1.404       .  A
C403        N410   1.439       .  S
C404        C405   1.406       .  A
C404        H409   1.083       .  S
C405        C406   1.422       .  A
C406        N407   1.435       .  S
N407        H411   1.046       .  S
N407        H412   1.044       .  S
N410        H413   1.046       .  S
N410        H414   1.046       .  S
C415        C416   1.413       .  A
C415        C420   1.398       .  A
C415        H422   1.082       .  S
C416        C417   1.413       .  A
C417        C418   1.407       .  A
C417        N424   1.437       .  S
C418        C931   1.405   1_554  A
C418        H935   1.084       .  S
C419        C930   1.408       .  A
C419        C932   1.406       .  A
C420        C931   1.406   1_554  A
C420        N421   1.433   1_554  S
N421        H425   1.045       .  S
N421        H938   1.046   1_556  S
H423        C930   1.084       .  S
N424        H427   1.046       .  S
N424        H428   1.046       .  S
H426        N933   1.046       .  S
C429        C430   1.399       .  A
C429        C434   1.407       .  A
C429        H436   1.084       .  S
C430        C431   1.420       .  A
C431        C432   1.400       .  A
C431        N438   1.434       .  S
C432        C433   1.401       .  A
C432        H437   1.084       .  S
C433        C434   1.417       .  A
C434        N435   1.432       .  S
N435        H439   1.046       .  S
N435        H440   1.045       .  S
N438        H441   1.046       .  S
N438        H442   1.044       .  S
C443        C444   1.414       .  A
C443        C448   1.406       .  A
C443        H450   1.083       .  S
C444        C445   1.409       .  A
C445        C446   1.407       .  A
C445        N452   1.438       .  S
C446        C447   1.415   1_655  A
C446        H451   1.083       .  S
C447        C448   1.409   1_455  A
C448        N449   1.438   1_655  S
N449        H453   1.046   1_455  S
N449        H454   1.046       .  S
N452        H455   1.045       .  S
N452        H456   1.046       .  S
C457        C458   1.401       .  A
C457        C462   1.405       .  A
C457        H464   1.084       .  S
C458        C459   1.420       .  A
C459        C460   1.404       .  A
C459        N466   1.433       .  S
C460        C461   1.396       .  A
C460        H465   1.084       .  S
C461        C462   1.419       .  A
C462        N463   1.433       .  S
N463        H467   1.044       .  S
N463        H468   1.046       .  S
N466        H470   1.045       .  S
N466        H981   1.046       .  S
H469        N978   1.046       .  S
C471        C472   1.409       .  A
C471        C476   1.400       .  A
C471        H478   1.084       .  S
C472        C473   1.409       .  A
C473        C474   1.411       .  A
C473        N480   1.437       .  S
C474        C475   1.409       .  A
C474        H479   1.084       .  S
C475        C476   1.407       .  A
C476        N477   1.430       .  S
N477        H481   1.045       .  S
N477        H482   1.045       .  S
N480        H483   1.046       .  S
N480        H484   1.046       .  S
C485        C486   1.409       .  A
C485        C490   1.407       .  A
C485        H492   1.084       .  S
C486        C487   1.409       .  A
C487        C488   1.399       .  A
C487        N494   1.438       .  S
C488        C489   1.406       .  A
C488        H493   1.084       .  S
C489        C490   1.408       .  A
C490        N491   1.438       .  S
N491        H495   1.046       .  S
N491        H496   1.045       .  S
N494        H497   1.045   1_545  S
N494        H498   1.046       .  S
C499        C500   1.406       .  A
C499        C504   1.407       .  A
C499        H506   1.084       .  S
C500        C501   1.409       .  A
C501        C502   1.404       .  A
C501        N508   1.438   1_545  S
C502        C503   1.403       .  A
C502        H507   1.084       .  S
C503        C504   1.407       .  A
C504        N505   1.439       .  S
N505        H509   1.046       .  S
N505        H510   1.046       .  S
N508        H511   1.045       .  S
N508        H512   1.046       .  S
O513        C528   1.257       .  A
O513       Al521   1.855       .  S
C514        O524   1.254       .  A
C514        O515   1.275       .  A
C514        C942   1.481       .  S
O515       Al517   1.965       .  S
O516        C518   1.248       .  A
O516       Al517   1.860       .  S
Al517       O525   1.859       .  S
Al517       O527   1.965       .  S
Al517       O526   1.778       .  S
C518        O531   1.263       .  A
C518        C973   1.476       .  S
O519        C529   1.259       .  A
O519       Al521   1.882       .  S
O520        C533   1.260       .  A
O520       Al530   1.884       .  S
Al521       O534   1.940       .  S
Al521       O531   1.945       .  S
Al521       O526   1.783       .  S
O522        C529   1.270       .  A
O522       Al530   1.939       .  S
O523        C532   1.264       .  A
O523       Al530   1.945       .  S
O524       Al530   1.853       .  S
O525        C532   1.250       .  A
O526       Al530   1.785       .  S
O527        C528   1.277       .  A
C528        C956   1.495       .  S
C529       C1012   1.484   1_565  S
C532        C984   1.482       .  S
C533        O534   1.269       .  A
C533        C998   1.480   1_565  S
O535        C550   1.255       .  A
O535       Al543   1.848       .  S
C536        O546   1.255       .  A
C536        O537   1.277       .  A
C536        C900   1.489       .  S
O537       Al539   1.963       .  S
O538        C540   1.247       .  A
O538       Al539   1.856       .  S
Al539       O547   1.854       .  S
Al539       O549   1.957       .  S
Al539       O548   1.777       .  S
C540        O553   1.265       .  A
C540        C987   1.484       .  S
O541        C551   1.259       .  A
O541       Al543   1.882       .  S
O542        C555   1.261       .  A
O542       Al552   1.881       .  S
Al543       O556   1.948       .  S
Al543       O553   1.951       .  S
Al543       O548   1.782       .  S
O544        C551   1.271       .  A
O544       Al552   1.949       .  S
O545        C554   1.266       .  A
O546       Al552   1.848       .  S
O548       Al552   1.787       .  S
O549        C550   1.275       .  A
C550        C886   1.486       .  S
C551        C917   1.491       .  S
C554        C970   1.488       .  S
C555        O556   1.270       .  A
C555        C931   1.474       .  S
O557        C572   1.269       .  A
O557       Al565   1.936       .  S
C558        O568   1.268       .  A
C558        O559   1.261       .  A
C558        C875   1.467       .  S
O559       Al561   1.895       .  S
O560        C562   1.269       .  A
O560       Al561   1.939       .  S
Al561       O569   1.929       .  S
Al561       O571   1.862       .  S
Al561       O570   1.791       .  S
C562        O575   1.253       .  A
C562        C903   1.494   1_455  S
O563        C573   1.265       .  A
O563       Al565   1.944       .  S
O564        C577   1.271       .  A
O564       Al574   1.931       .  S
Al565       O578   1.892       .  S
Al565       O575   1.855       .  S
Al565       O570   1.781       .  S
O566        C573   1.251       .  A
O566       Al574   1.884       .  S
O567        C576   1.252       .  A
O567       Al574   1.878       .  S
O568       Al574   1.914       .  S
O569        C576   1.263       .  A
O570       Al574   1.787       .  S
O571        C572   1.253       .  A
C572        C959   1.493       .  S
C573        C844   1.501       .  S
C576        C858   1.490       .  S
C577        O578   1.262       .  A
C577        C833   1.486       .  S
O579        C594   1.265       .  A
O579       Al587   1.925       .  S
C580        O590   1.269       .  A
C580        O581   1.260       .  A
C580        C802   1.469       .  S
O581       Al583   1.884       .  S
O582        C584   1.268       .  A
O582       Al583   1.929       .  S
Al583       O593   1.855       .  S
Al583       O592   1.781       .  S
C584        O597   1.256       .  A
C584        C945   1.487       .  S
O585        C595   1.261       .  A
O585       Al587   1.915       .  S
O586        C599   1.267       .  A
O586       Al596   1.915       .  S
Al587       O600   1.892       .  S
Al587       O597   1.880       .  S
Al587       O592   1.785       .  S
O588        C595   1.252       .  A
O588       Al596   1.885       .  S
O589       Al596   1.892       .  S
O590       Al596   1.921       .  S
O591        C598   1.266       .  A
O592       Al596   1.794       .  S
O593        C594   1.251       .  A
C594        C889   1.478       .  S
C595        C861   1.484       .  S
C598        C847   1.497   1_554  S
C599        O600   1.261       .  A
C599        C816   1.462       .  S
O601        C616   1.258       .  A
O601       Al609   1.866       .  S
C602        O612   1.255       .  A
C602        O603   1.268       .  A
C602        C746   1.468       .  S
O603       Al605   1.941       .  S
O604        C606   1.251       .  A
O604       Al605   1.861       .  S
Al605       O613   1.862       .  S
Al605       O615   1.943       .  S
Al605       O614   1.782       .  S
C606        O619   1.266       .  A
C606        C777   1.489       .  S
O607        C617   1.263       .  A
O607       Al609   1.886       .  S
O608        C621   1.262       .  A
O608       Al618   1.893       .  S
Al609       O622   1.946       .  S
Al609       O619   1.956       .  S
Al609       O614   1.787       .  S
O610        C617   1.268       .  A
O610       Al618   1.935       .  S
O611        C620   1.266       .  A
O611       Al618   1.950       .  S
O612       Al618   1.856       .  S
O613        C620   1.251       .  A
O614       Al618   1.781       .  S
O615        C616   1.270       .  A
C616        C763   1.465       .  S
C617        C805   1.472       .  S
C620        C788   1.484       .  S
C621        O622   1.267       .  A
C621        C830   1.476   1_545  S
O623        C638   1.259       .  A
O623       Al631   1.857       .  S
C624        O634   1.257       .  A
C624        O625   1.271       .  A
C624        C735   1.482       .  S
O625       Al627   1.940       .  S
O626        C628   1.250       .  A
O626       Al627   1.873       .  S
Al627       O635   1.859       .  S
Al627       O637   1.951       .  S
Al627       O636   1.784       .  S
C628        O641   1.259       .  A
C628        C791   1.483       .  S
O629        C639   1.262       .  A
O629       Al631   1.889       .  S
O630        C643   1.261       .  A
O630       Al640   1.889       .  S
Al631       O644   1.931       .  S
Al631       O641   1.931       .  S
Al631       O636   1.785       .  S
O632        C639   1.268       .  A
O632       Al640   1.935       .  S
O633        C642   1.263       .  A
O634       Al640   1.857       .  S
O636       Al640   1.790       .  S
O637        C638   1.274       .  A
C638        C718   1.482       .  S
C639        C872   1.473       .  S
C642        C774   1.478       .  S
C643        O644   1.264       .  A
C643        C819   1.488       .  S
O645        C660   1.269       .  A
O645       Al653   1.935       .  S
C646        O656   1.272       .  A
C646        O647   1.256       .  A
C646       C1001   1.482       .  S
O647       Al649   1.851       .  S
O648        C650   1.268       .  A
O648       Al649   1.930       .  S
Al649       O657   1.940       .  S
Al649       O659   1.877       .  S
Al649       O658   1.780       .  S
C650        O663   1.261       .  A
C650        C760   1.483       .  S
O651        C661   1.266       .  A
O651       Al653   1.950       .  S
O652        C665   1.271       .  A
O652       Al662   1.950       .  S
Al653       O666   1.857       .  S
Al653       O663   1.894       .  S
Al653       O658   1.780       .  S
O654        C661   1.250       .  A
O654       Al662   1.851       .  S
O655        C664   1.248       .  A
O655       Al662   1.854       .  S
O656       Al662   1.955       .  S
O657        C664   1.263       .  A
O658       Al662   1.777       .  S
O659        C660   1.259       .  A
C660        C732   1.470       .  S
C661        C707   1.484       .  S
C664        C690   1.470       .  S
C665        O666   1.254       .  A
C665        C914   1.469       .  S
O667        C682   1.265       .  A
O667       Al675   1.923       .  S
C668        O678   1.272       .  A
C668        O669   1.257       .  A
C668        C928   1.482       .  S
O669       Al671   1.851       .  S
O670        C672   1.269       .  A
O670       Al671   1.935       .  S
Al671       O679   1.924       .  S
Al671       O681   1.888       .  S
Al671       O680   1.785       .  S
C672        O685   1.262       .  A
C672        C721   1.479       .  S
O673        C683   1.259       .  A
O674        C687   1.272       .  A
O674       Al684   1.948       .  S
Al675       O688   1.849       .  S
Al675       O685   1.887       .  S
Al675       O680   1.787       .  S
O676       Al684   1.866       .  S
O677        C686   1.249       .  A
O677       Al684   1.862       .  S
O678       Al684   1.945       .  S
O679        C686   1.260       .  A
O680       Al684   1.786       .  S
O681        C682   1.259       .  A
C682        C749   1.484       .  S
C683        C693   1.476   1_554  S
C686        C704   1.470       .  S
C687        O688   1.255       .  A
C687       C1015   1.461       .  S
C689        C690   1.399       .  A
C689        C694   1.406       .  A
C689        H696   1.084       .  S
C690        C691   1.417       .  A
C691        C692   1.397       .  A
C691        N698   1.433       .  S
C692        C693   1.399       .  A
C692        H697   1.084       .  S
C693        C694   1.417       .  A
N695        H699   1.046       .  S
N695        H700   1.046       .  S
N698        H701   1.046       .  S
N698        H702   1.044       .  S
C703        C704   1.406       .  A
C703        C708   1.409       .  A
C703        H710   1.084       .  S
C704        C705   1.403       .  A
C705        C706   1.402       .  A
C705        N712   1.439       .  S
C706        C707   1.410       .  A
C706        H711   1.084       .  S
C707        C708   1.410       .  A
C708        N709   1.437       .  S
N709        H713   1.046       .  S
N709        H714   1.045       .  S
N712        H715   1.045       .  S
N712        H716   1.045       .  S
C717        C722   1.400       .  A
C717        H724   1.084       .  S
C718        C719   1.412       .  A
C719        C720   1.403       .  A
C719        N726   1.432       .  S
C720        H725   1.084       .  S
C721        C722   1.409       .  A
C722        N723   1.438       .  S
N723        H727   1.046       .  S
N723        H728   1.044       .  S
N726        H729   1.046       .  S
N726        H730   1.045       .  S
C731        C732   1.405   1_455  A
C731        C736   1.406       .  A
C731        H738   1.084       .  S
C732        C733   1.402   1_655  A
C733        C734   1.398       .  A
C733        N740   1.433   1_455  S
C734        C735   1.410       .  A
C734        H739   1.084       .  S
C735        C736   1.411       .  A
C736        N737   1.437       .  S
N737        H741   1.046       .  S
N737        H742   1.046       .  S
N740        H743   1.045   1_655  S
N740        H744   1.046       .  S
C745        C746   1.400       .  A
C745        C750   1.398       .  A
C745        H752   1.085       .  S
C746        C747   1.406       .  A
C747        C748   1.407       .  A
C747        N754   1.437       .  S
C748        C749   1.411       .  A
C748        H753   1.083       .  S
C749        C750   1.415       .  A
C750        N751   1.439       .  S
N751        H755   1.046       .  S
N751        H756   1.046       .  S
N754        H757   1.045       .  S
N754        H758   1.046       .  S
C759        C760   1.405   1_455  A
C759        C764   1.397       .  A
C759        H766   1.084       .  S
C760        C761   1.415   1_655  A
C761        C762   1.408       .  A
C761        N768   1.437   1_455  S
C762        C763   1.401       .  A
C762        H767   1.084       .  S
C763        C764   1.413       .  A
C764        N765   1.441       .  S
N765        H769   1.046       .  S
N765        H770   1.043       .  S
N768        H771   1.046       .  S
N768        H772   1.046       .  S
C773        C774   1.408       .  A
C773        C778   1.410       .  A
C773        H780   1.084       .  S
C774        C775   1.404       .  A
C775        C776   1.406       .  A
C775        N782   1.438       .  S
C776        C777   1.412       .  A
C776        H781   1.084       .  S
C777        C778   1.410       .  A
C778        N779   1.437       .  S
N779        H783   1.046       .  S
N779        H784   1.045       .  S
N782        H785   1.046       .  S
N782        H786   1.046       .  S
C787        C788   1.408       .  A
C787        C792   1.407       .  A
C787        H794   1.084       .  S
C788        C789   1.407       .  A
C789        C790   1.410       .  A
C789        N796   1.436       .  S
C790        C791   1.408       .  A
C790        H795   1.084       .  S
C791        C792   1.408       .  A
C792        N793   1.437       .  S
N793        H797   1.046       .  S
N793        H798   1.045       .  S
N796        H799   1.044       .  S
N796        H800   1.046       .  S
C801        C802   1.406       .  A
C801        C806   1.402       .  A
C801        H808   1.084       .  S
C802        C803   1.404       .  A
C803        C804   1.406       .  A
C803        N810   1.437       .  S
C804        C805   1.409   1_565  A
C804        H809   1.084       .  S
C805        C806   1.407   1_545  A
C806        N807   1.438   1_565  S
N807        H811   1.046   1_545  S
N807        H812   1.045       .  S
N810        H813   1.046       .  S
N810        H814   1.046       .  S
C815        C816   1.398       .  A
C816        C817   1.405       .  A
C817        C818   1.397       .  A
C817        N824   1.433       .  S
C818        H823   1.084       .  S
C819        C820   1.421       .  A
C820        N821   1.438       .  S
N821        H825   1.046       .  S
N821        H826   1.045       .  S
N824        H827   1.046       .  S
N824        H828   1.046       .  S
C829        C830   1.408       .  A
C829        C834   1.412       .  A
C829        H836   1.084       .  S
C830        C831   1.405       .  A
C831        C832   1.396       .  A
C831        N838   1.432   1_565  S
C832        C833   1.410       .  A
C832        H837   1.084       .  S
C833        C834   1.412       .  A
C834        N835   1.438       .  S
N835        H839   1.046       .  S
N835        H840   1.046       .  S
N838        H841   1.046       .  S
N838        H842   1.043       .  S
C843        C844   1.403       .  A
C843        C848   1.413       .  A
C843        H850   1.083       .  S
C844        C845   1.423       .  A
C845        C846   1.404       .  A
C845        N852   1.433       .  S
C846        C847   1.399       .  A
C846        H851   1.084       .  S
C847        C848   1.424       .  A
N849        H853   1.046       .  S
N849        H854   1.046       .  S
N852        H855   1.046       .  S
N852        H856   1.046       .  S
C857        C858   1.412       .  A
C857        C862   1.402       .  A
C857        H864   1.083       .  S
C858        C859   1.409       .  A
C859        C860   1.408       .  A
C859        N866   1.437       .  S
C860        C861   1.411       .  A
C860        H865   1.084       .  S
C861        C862   1.408       .  A
C862        N863   1.438       .  S
N863        H867   1.046       .  S
N863        H868   1.046       .  S
N866        H869   1.046       .  S
N866        H870   1.045       .  S
C871        C872   1.406       .  A
C871        C876   1.404       .  A
C871        H878   1.084       .  S
C872        C873   1.407       .  A
C873        C874   1.401       .  A
C873        N880   1.432       .  S
C874        C875   1.404       .  A
C874        H879   1.084       .  S
C875        C876   1.407       .  A
C876        N877   1.438       .  S
N877        H881   1.046       .  S
N877        H882   1.046       .  S
N880        H883   1.045       .  S
N880        H884   1.046       .  S
C885        C886   1.415       .  A
C885        C890   1.405       .  A
C885        H892   1.083       .  S
C887        C888   1.402       .  A
C887        N894   1.438       .  S
C888        C889   1.410       .  A
C888        H893   1.084       .  S
C890        N891   1.437       .  S
N891        H895   1.046       .  S
N891        H896   1.045       .  S
N894        H897   1.046       .  S
N894        H898   1.046       .  S
C899        C900   1.415       .  A
C899        C904   1.408       .  A
C899        H906   1.084       .  S
C900        C901   1.405       .  A
C901        C902   1.404       .  A
C901        N908   1.438       .  S
C902        C903   1.416       .  A
C902        H907   1.083       .  S
C903        C904   1.409       .  A
C904        N905   1.438   1_655  S
N905        H909   1.046   1_455  S
N905        H910   1.046       .  S
N908        H911   1.046       .  S
N908        H912   1.046       .  S
C913        C914   1.394       .  A
C913        C918   1.405       .  A
C913        H920   1.084       .  S
C914        C915   1.410       .  A
C915        C916   1.404       .  A
C915        N922   1.439       .  S
C916        C917   1.406       .  A
C916        H921   1.083       .  S
C917        C918   1.422       .  A
C918        N919   1.435       .  S
N919        H923   1.046       .  S
N919        H924   1.044       .  S
N922        H925   1.046       .  S
N922        H926   1.046       .  S
C927        C928   1.409       .  A
C927        C932   1.393       .  A
C927        H934   1.081       .  S
C928        C929   1.410       .  A
C929        C930   1.407       .  A
C929        N936   1.437       .  S
C932        N933   1.434       .  S
N933        H937   1.044       .  S
N936        H939   1.046       .  S
N936        H940   1.046       .  S
C941        C942   1.400       .  A
C941        C946   1.408       .  A
C941        H948   1.084       .  S
C942        C943   1.421       .  A
C943        C944   1.400       .  A
C943        N950   1.434       .  S
C944        C945   1.400       .  A
C944        H949   1.084       .  S
C945        C946   1.418       .  A
C946        N947   1.432       .  S
N947        H951   1.046       .  S
N947        H952   1.045       .  S
N950        H953   1.046       .  S
N950        H954   1.044       .  S
C955        C956   1.415       .  A
C955        C960   1.407       .  A
C955        H962   1.083       .  S
C956        C957   1.409       .  A
C957        C958   1.407       .  A
C957        N964   1.438       .  S
C958        C959   1.415   1_655  A
C958        H963   1.083       .  S
C959        C960   1.407   1_455  A
C960        N961   1.438   1_655  S
N961        H965   1.046   1_455  S
N961        H966   1.046       .  S
N964        H967   1.045       .  S
N964        H968   1.046       .  S
C969        C970   1.401       .  A
C969        C974   1.404       .  A
C969        H976   1.084       .  S
C970        C971   1.419       .  A
C971        C972   1.404       .  A
C971        N978   1.433       .  S
C972        C973   1.396       .  A
C972        H977   1.084       .  S
C973        C974   1.418       .  A
C974        N975   1.433       .  S
N975        H979   1.044       .  S
N975        H980   1.046       .  S
N978        H982   1.045       .  S
C983        C984   1.408       .  A
C983        C988   1.400       .  A
C983        H990   1.084       .  S
C984        C985   1.408       .  A
C985        C986   1.410       .  A
C985        N992   1.438       .  S
C986        C987   1.410       .  A
C986        H991   1.084       .  S
C987        C988   1.408       .  A
C988        N989   1.429       .  S
N989        H993   1.045       .  S
N989        H994   1.044       .  S
N992        H995   1.046       .  S
N992        H996   1.046       .  S
C997        C998   1.410       .  A
C997       C1002   1.409       .  A
C997       H1004   1.084       .  S
C998        C999   1.408       .  A
C999       C1000   1.400       .  A
C999       N1006   1.438       .  S
C1000      C1001   1.408       .  A
C1000      H1005   1.084       .  S
C1001      C1002   1.409       .  A
C1002      N1003   1.437       .  S
N1003      H1007   1.046       .  S
N1003      H1008   1.045       .  S
N1006      H1009   1.046   1_545  S
N1006      H1010   1.046       .  S
C1011      C1012   1.407       .  A
C1011      C1016   1.401       .  A
C1011      H1018   1.083       .  S
C1012      C1013   1.420       .  A
C1013      C1014   1.406       .  A
C1013      N1020   1.438   1_545  S
C1014      C1015   1.398       .  A
C1014      H1019   1.084       .  S
C1015      C1016   1.407       .  A
C1016      N1017   1.440       .  S
N1017      H1021   1.046       .  S
N1017      H1022   1.045       .  S
N1020      H1023   1.045       .  S
N1020      H1024   1.046       .  S
