geometry optimzed in LAMMPS
_audit_creation_date              2020-12-01 
_audit_creation_method            'lammps2cif' 
_symmetry_space_group_name_H-M    'P1' 
_symmetry_Int_Tables_number       1 
_symmetry_cell_setting            triclinic 
loop_ 
_symmetry_equiv_pos_as_xyz 
  x,y,z 
_cell_length_a                    36.09500638 
_cell_length_b                    36.16968081320136 
_cell_length_c                    51.42230323074959 
_cell_angle_alpha                 90.09656758851506 
_cell_angle_beta                  89.93327121905612 
_cell_angle_gamma                 89.86394023561436 
loop_ 
_atom_site_label 
_atom_site_type_symbol 
_atom_site_fract_x 
_atom_site_fract_y 
_atom_site_fract_z 
_atom_site_charge 
Zn1        Zn  0.00353595  0.96607997  0.15185935     1.49700
Zn2        Zn  0.95576226  0.99591097  0.10609506     1.49400
Zn3        Zn  0.00384071  0.05293476  0.14039596     1.49100
Zn4        Zn  0.04474122  0.99277602  0.10250167     1.49500
O5          O  0.00211129  0.00271797  0.12509149    -1.84000
O6          O  0.95869276  0.93553179  0.15306718    -0.74700
O7          O  0.92426755  0.04142282  0.10806874    -0.74500
O8          O  0.99944577  0.05006443  0.18068117    -0.74000
O9          O  0.92490525  0.95127483  0.11904133    -0.74700
O10         O  0.00344564  0.98912712  0.18548063    -0.74300
O11         O  0.96107272  0.08400772  0.12561872    -0.74900
O12         O  0.07572349  0.03869925  0.10084995    -0.74300
O13         O  0.96783516  0.99636681  0.06800154    -0.75000
O14         O  0.05140431  0.07888018  0.12882853    -0.74400
O15         O  0.02810746  0.98686637  0.06522442    -0.74900
O16         O  0.07791492  0.95000610  0.11550819    -0.74800
O17         O  0.04739235  0.93345278  0.15112146    -0.74600
C18         C  0.92989437  0.93154041  0.13937234     0.77200
C19         C  0.93128361  0.07485606  0.11390282     0.77700
C20         C  0.99995774  0.02113046  0.19497776     0.76700
C21         C  0.07580430  0.07026681  0.11182110     0.77000
C22         C  0.99724721  0.99391235  0.05440392     0.78200
C23         C  0.07476693  0.93009376  0.13588707     0.77200
Zn24       Zn  0.99541888  0.96325269  0.40127262     1.49700
Zn25       Zn  0.95066484  0.99228647  0.35395426     1.49400
Zn26       Zn  0.99602391  0.05070357  0.38931531     1.49100
Zn27       Zn  0.03992837  0.99183694  0.35364203     1.49500
O28         O  0.99536614  0.00024491  0.37449993    -1.84000
O29         O  0.95332967  0.92872006  0.39948135    -0.74700
O30         O  0.91950395  0.03783960  0.35362981    -0.74500
O31         O  0.99498620  0.04833629  0.42932989    -0.74000
O32         O  0.91839993  0.94874897  0.36709149    -0.74700
O33         O  0.99190759  0.98738623  0.43531923    -0.74300
O34         O  0.95211359  0.07978856  0.37546895    -0.74900
O35         O  0.06940243  0.03779443  0.35151728    -0.74300
O36         O  0.96587368  0.99125464  0.31637345    -0.75000
O37         O  0.04094695  0.07954819  0.37617763    -0.74400
O38         O  0.02707161  0.98425180  0.31592546    -0.74900
O39         O  0.07472715  0.95374968  0.36935533    -0.74800
O40         O  0.04146890  0.93372212  0.40251056    -0.74600
C41         C  0.92388673  0.92678635  0.38619688     0.77200
C42         C  0.92467362  0.07087268  0.36120239     0.77700
C43         C  0.99277949  0.02008065  0.44416174     0.76700
C44         C  0.06680449  0.07033760  0.36050227     0.77000
C45         C  0.99656847  0.98997854  0.30414069     0.78200
C46         C  0.07124039  0.93350690  0.38946089     0.77200
Zn47       Zn  0.26203320  0.20544521  0.08455869     1.49700
Zn48       Zn  0.29421798  0.24941196  0.03781500     1.49400
Zn49       Zn  0.20552327  0.24537367  0.04453691     1.49100
Zn50       Zn  0.25830048  0.29469346  0.08170590     1.49500
O51         O  0.25407645  0.24852717  0.06232731    -1.84000
O52         O  0.30277783  0.17061829  0.07045973    -0.74700
O53         O  0.27455676  0.25021959  0.50274967    -0.74500
O54         O  0.17809921  0.19870686  0.05601921    -0.74000
O55         O  0.32521993  0.20505755  0.03857431    -0.74700
O56         O  0.21538701  0.17586838  0.08638180    -0.74300
O57         O  0.21312349  0.24607594  0.00461755    -0.74900
O58         O  0.20843848  0.31936587  0.08366775    -0.74300
O59         O  0.32645594  0.29307056  0.03965702    -0.75000
O60         O  0.17170531  0.28767298  0.05696044    -0.74400
O61         O  0.29682452  0.33026772  0.06694129    -0.74900
O62         O  0.26998120  0.28391504  0.11874633    -0.74800
O63         O  0.26919137  0.22262264  0.12158133    -0.74600
C64         C  0.32482437  0.17515730  0.05127464     0.77200
C65         C  0.24334835  0.24845815  0.49172014     0.77700
C66         C  0.18484428  0.17549601  0.07410457     0.76700
C67         C  0.17689285  0.31363546  0.07342539     0.77000
C68         C  0.32288096  0.32414400  0.05072473     0.78200
C69         C  0.27021058  0.25451301  0.13220665     0.77200
Zn70       Zn  0.20714720  0.24723736  0.33793964     1.49700
Zn71       Zn  0.29571937  0.24880305  0.32730897     1.49400
Zn72       Zn  0.23896048  0.20333895  0.29054309     1.49100
Zn73       Zn  0.23659095  0.29308849  0.29162596     1.49500
O74         O  0.24542153  0.24802260  0.31177717    -1.84000
O75         O  0.22990166  0.24344666  0.37197560    -0.74700
O76         O  0.32625799  0.20403132  0.31454367    -0.74500
O77         O  0.19599410  0.17055183  0.30306342    -0.74000
O78         O  0.29112571  0.24820107  0.36745245    -0.74700
O79         O  0.17316111  0.20451935  0.33536921    -0.74300
O80         O  0.28597692  0.17309994  0.29027906    -0.74900
O81         O  0.23457688  0.27950227  0.25414891    -0.74300
O82         O  0.32400047  0.29465004  0.31444833    -0.75000
O83         O  0.23456832  0.21798855  0.25299099    -0.74400
O84         O  0.28160593  0.32482802  0.29127985    -0.74900
O85         O  0.19324329  0.32523109  0.30485362    -0.74800
O86         O  0.17708097  0.29304077  0.33970344    -0.74600
C87         C  0.26208790  0.24500452  0.38159557     0.77200
C88         C  0.31844375  0.17692431  0.29955223     0.77700
C89         C  0.17266146  0.17560646  0.32143092     0.76700
C90         C  0.23639899  0.24918950  0.24162067     0.77000
C91         C  0.31441828  0.32156555  0.29982777     0.78200
C92         C  0.17403440  0.32151774  0.32555224     0.77200
Zn93       Zn  0.21646587  0.74734599  0.15882495     1.49700
Zn94       Zn  0.24822495  0.70297654  0.20529743     1.49400
Zn95       Zn  0.30413235  0.75123237  0.16977679     1.49100
Zn96       Zn  0.24335869  0.79275170  0.20642032     1.49500
O97         O  0.25387659  0.74856870  0.18527002    -1.84000
O98         O  0.18505181  0.70235261  0.15897398    -0.74700
O99         O  0.29596312  0.67502010  0.20615757    -0.74500
O100        O  0.30060203  0.75528072  0.12970842    -0.74000
O101        O  0.20711967  0.66867475  0.19155884    -0.74700
O102        O  0.23966548  0.74903291  0.12517862    -0.74300
O103        O  0.33564412  0.70700070  0.18184221    -0.74900
O104        O  0.28834132  0.82530642  0.20791915    -0.74300
O105        O  0.24272581  0.71628254  0.24289964    -0.75000
O106        O  0.33100768  0.79636774  0.18420177    -0.74400
O107        O  0.23873391  0.77779791  0.24373734    -0.74900
O108        O  0.19888591  0.82359415  0.19349110    -0.74800
O109        O  0.18446178  0.79186882  0.15847000    -0.74600
C110        C  0.18481045  0.67312809  0.17255257     0.77200
C111        C  0.32831163  0.68016420  0.19712831     0.77700
C112        C  0.27149491  0.75389600  0.11557116     0.76700
C113        C  0.32135033  0.82260755  0.19940963     0.77000
C114        C  0.24161151  0.74680341  0.25525314     0.78200
C115        C  0.17947330  0.81978937  0.17293051     0.77200
Zn116      Zn  0.20951509  0.75361527  0.41084564     1.49700
Zn117      Zn  0.23862780  0.70821725  0.45773223     1.49400
Zn118      Zn  0.29762263  0.74907168  0.41932869     1.49100
Zn119      Zn  0.24384004  0.79726547  0.45621374     1.49500
O120        O  0.24829677  0.75179514  0.43612300    -1.84000
O121        O  0.17621969  0.71058994  0.41153716    -0.74700
O122        O  0.28330573  0.67529662  0.45769459    -0.74500
O123        O  0.29165919  0.74472439  0.37944676    -0.74000
O124        O  0.19384843  0.67746039  0.44550922    -0.74700
O125        O  0.23067486  0.75185067  0.37640157    -0.74300
O126        O  0.32531979  0.70437766  0.43353598    -0.74900
O127        O  0.29043083  0.82519455  0.45513591    -0.74300
O128        O  0.23696208  0.72367476  0.49541871    -0.75000
O129        O  0.32962665  0.79366715  0.43009393    -0.74400
O130        O  0.24227572  0.78494709  0.49384858    -0.74900
O131        O  0.20366293  0.83259129  0.44361397    -0.74800
O132        O  0.17978628  0.79912492  0.41174071    -0.74600
C133        C  0.17291606  0.68227253  0.42577373     0.77200
C134        C  0.31605915  0.67818864  0.44879849     0.77700
C135        C  0.26196334  0.74677793  0.36594666     0.76700
C136        C  0.32232567  0.82061693  0.44537654     0.77000
C137        C  0.24200303  0.75477118  0.00651527     0.78200
C138        C  0.18113507  0.82884027  0.42474083     0.77200
Zn139      Zn  0.49970909  0.96468332  0.47004156     1.49700
Zn140      Zn  0.45601195  0.98903135  0.01832345     1.49400
Zn141      Zn  0.54518081  0.98735254  0.01916563     1.49100
Zn142      Zn  0.50239982  0.04996963  0.48505017     1.49500
O143        O  0.50092327  0.99871754  0.49836916    -1.84000
O144        O  0.45603042  0.93278307  0.46853569    -0.74700
O145        O  0.46977535  0.98598714  0.05600047    -0.74500
O146        O  0.57619334  0.94481387  0.00386161    -0.74000
O147        O  0.42379643  0.94650388  0.00386606    -0.74700
O148        O  0.54307919  0.93294775  0.46857818    -0.74300
O149        O  0.53096062  0.97966239  0.05669857    -0.74900
O150        O  0.54622050  0.07705787  0.50154806    -0.74300
O151        O  0.42491897  0.03404853  0.01934775    -0.75000
O152        O  0.57688397  0.03278183  0.02244651    -0.74400
O153        O  0.45655872  0.07760689  0.49826753    -0.74900
O154        O  0.50635574  0.05046390  0.44458801    -0.74800
O155        O  0.50136156  0.99009499  0.43745022    -0.74600
C156        C  0.42782653  0.92822495  0.48274617     0.77200
C157        C  0.50020840  0.98434139  0.06843632     0.77700
C158        C  0.57114997  0.92705218  0.48260493     0.76700
C159        C  0.57286633  0.06655882  0.01611410     0.77000
C160        C  0.42912578  0.06733056  0.01221684     0.78200
C161        C  0.50528276  0.02264574  0.42917934     0.77200
Zn162      Zn  0.50229820  0.95969339  0.22401656     1.49700
Zn163      Zn  0.54702540  0.99391344  0.26925045     1.49400
Zn164      Zn  0.49913538  0.04866928  0.23239814     1.49100
Zn165      Zn  0.45774232  0.99149051  0.27130207     1.49500
O166        O  0.50141301  0.99923832  0.24918023    -1.84000
O167        O  0.54707862  0.92806292  0.22541523    -0.74700
O168        O  0.57826101  0.03876856  0.26640946    -0.74500
O169        O  0.49841397  0.04205627  0.19218934    -0.74000
O170        O  0.57956035  0.94956540  0.25874114    -0.74700
O171        O  0.50118102  0.98064616  0.18928569    -0.74300
O172        O  0.54377159  0.07963670  0.24484730    -0.74900
O173        O  0.42744974  0.03796762  0.27234587    -0.74300
O174        O  0.53348110  0.99611862  0.30689623    -0.75000
O175        O  0.45264219  0.07739633  0.24476150    -0.74400
O176        O  0.47265138  0.98735523  0.30903525    -0.74900
O177        O  0.42446446  0.94900099  0.25819866    -0.74800
O178        O  0.45826362  0.92724521  0.22544754    -0.74600
C179        C  0.57549523  0.92703749  0.23983067     0.77200
C180        C  0.57250937  0.07131179  0.25817282     0.77700
C181        C  0.49901447  0.01217114  0.17876327     0.76700
C182        C  0.42785419  0.06961588  0.26166310     0.77000
C183        C  0.50355749  0.99433433  0.31993225     0.78200
C184        C  0.42919169  0.92650889  0.23927157     0.77200
Zn185      Zn  0.75879126  0.79335002  0.20786522     1.49700
Zn186      Zn  0.79258317  0.75047143  0.16236576     1.49400
Zn187      Zn  0.75563819  0.70341077  0.20546298     1.49100
Zn188      Zn  0.70169546  0.75025641  0.16867590     1.49500
O189        O  0.75100552  0.74948341  0.18602968    -1.84000
O190        O  0.79996702  0.82869344  0.19573889    -0.74700
O191        O  0.82485637  0.70617443  0.16396782    -0.74500
O192        O  0.75956965  0.71586094  0.24312596    -0.74000
O193        O  0.82406019  0.79533308  0.16380767    -0.74700
O194        O  0.76355780  0.77739894  0.24495569    -0.74300
O195        O  0.79622686  0.66902717  0.19140037    -0.74900
O196        O  0.67034961  0.70319682  0.17830162    -0.74300
O197        O  0.77323498  0.75115449  0.12729080    -0.75000
O198        O  0.70885280  0.67429191  0.20475439    -0.74400
O199        O  0.71144565  0.75307144  0.12863271    -0.74900
O200        O  0.67201814  0.79559250  0.18288149    -0.74800
O201        O  0.71279114  0.82306865  0.20893676    -0.74600
C202        C  0.82325273  0.82464701  0.17728965     0.77200
C203        C  0.82159775  0.67477775  0.17461195     0.77700
C204        C  0.76029792  0.74601782  0.25591803     0.76700
C205        C  0.67746793  0.67634043  0.19376276     0.77000
C206        C  0.74218121  0.75279952  0.11600142     0.78200
C207        C  0.68062548  0.82108922  0.19914950     0.77200
Zn208      Zn  0.73705309  0.70059019  0.41640382     1.49700
Zn209      Zn  0.73823036  0.78946262  0.41211514     1.49400
Zn210      Zn  0.70824676  0.75048005  0.46118869     1.49100
Zn211      Zn  0.79553020  0.74843365  0.45094232     1.49500
O212        O  0.74575798  0.74718050  0.43502370    -1.84000
O213        O  0.72823444  0.71048514  0.37862245    -0.74700
O214        O  0.69633596  0.82348381  0.42315676    -0.74500
O215        O  0.67796528  0.70600377  0.46365386    -0.74000
O216        O  0.73232514  0.77175882  0.37581065    -0.74700
O217        O  0.69590838  0.66896960  0.43182394    -0.74300
O218        O  0.67543442  0.79354529  0.45780561    -0.74900
O219        O  0.79090868  0.74860321  0.49143913    -0.74300
O220        O  0.78374379  0.81995095  0.41027175    -0.75000
O221        O  0.72980486  0.75364129  0.99540684    -0.74400
O222        O  0.82406076  0.79344248  0.43711247    -0.74900
O223        O  0.82526543  0.70364869  0.43802437    -0.74800
O224        O  0.78367190  0.67081436  0.41589019    -0.74600
C225        C  0.73010571  0.74001869  0.36529664     0.77200
C226        C  0.67433201  0.82076872  0.44240244     0.77700
C227        C  0.67542328  0.67576471  0.45144053     0.76700
C228        C  0.76161392  0.75100625  0.00539237     0.77000
C229        C  0.81573878  0.81824797  0.42039319     0.78200
C230        C  0.81652893  0.67580663  0.42400864     0.77200
Zn231      Zn  0.79551536  0.24876420  0.04783257     1.49700
Zn232      Zn  0.73999930  0.20619434  0.08640525     1.49400
Zn233      Zn  0.73852253  0.29593781  0.08292619     1.49100
Zn234      Zn  0.70586760  0.24697778  0.03905732     1.49500
O235        O  0.74559658  0.24952259  0.06403191    -1.84000
O236        O  0.82654154  0.20607474  0.06304098    -0.74700
O237        O  0.74034534  0.22380532  0.12348381    -0.74500
O238        O  0.78543793  0.32499808  0.08311907    -0.74000
O239        O  0.78526719  0.17427589  0.08501438    -0.74700
O240        O  0.82506117  0.29562924  0.05751762    -0.74300
O241        O  0.73516692  0.28514740  0.12086755    -0.74900
O242        O  0.67384156  0.29165132  0.03784159    -0.74300
O243        O  0.69606529  0.17279995  0.07693107    -0.75000
O244        O  0.69632692  0.32865137  0.06829377    -0.74400
O245        O  0.67367555  0.20282334  0.04277926    -0.74900
O246        O  0.72769889  0.24271412  0.50457428    -0.74800
O247        O  0.78922314  0.24259436  0.00807006    -0.74600
C248        C  0.81835276  0.17839122  0.07728325     0.77200
C249        C  0.74007204  0.25573870  0.13400532     0.77700
C250        C  0.81753697  0.32206945  0.07319524     0.76700
C251        C  0.67361068  0.32237784  0.04974263     0.77000
C252        C  0.67324243  0.17539117  0.05808450     0.78200
C253        C  0.75961277  0.24069846  0.49440304     0.77200
Zn254      Zn  0.74058204  0.29207670  0.33627570     1.49700
Zn255      Zn  0.79928617  0.25248761  0.29751582     1.49400
Zn256      Zn  0.74157355  0.20307213  0.33194118     1.49100
Zn257      Zn  0.71170555  0.25004311  0.28704044     1.49500
O258        O  0.74915072  0.24949766  0.31337273    -1.84000
O259        O  0.78681609  0.32285976  0.33861109    -0.74700
O260        O  0.82956490  0.20737278  0.30922092    -0.74500
O261        O  0.73883349  0.21354323  0.37018062    -0.74000
O262        O  0.82734459  0.29728376  0.31169842    -0.74700
O263        O  0.73500044  0.27477773  0.37316891    -0.74300
O264        O  0.78784616  0.17363228  0.33058561    -0.74900
O265        O  0.68056861  0.20539376  0.28474011    -0.74300
O266        O  0.79559542  0.25762269  0.25747893    -0.75000
O267        O  0.69880208  0.17093863  0.31797651    -0.74400
O268        O  0.73452912  0.25451125  0.25348044    -0.74900
O269        O  0.67905020  0.29329755  0.28937625    -0.74800
O270        O  0.69741023  0.32496473  0.32397616    -0.74600
C271        C  0.81898532  0.32193162  0.32850238     0.77200
C272        C  0.82079710  0.17919573  0.32287385     0.77700
C273        C  0.73830741  0.24307573  0.38366788     0.76700
C274        C  0.67829321  0.17615799  0.29809890     0.77000
C275        C  0.76626839  0.25839517  0.24355024     0.78200
C276        C  0.67617487  0.32100555  0.30430980     0.77200
Zn277      Zn  0.53995264  0.50988760  0.02455039     1.49700
Zn278      Zn  0.49689127  0.45576357  0.48475026     1.49400
Zn279      Zn  0.45064909  0.51144908  0.02312450     1.49100
Zn280      Zn  0.49626844  0.54423673  0.47828904     1.49500
O281        O  0.49588749  0.50428362  0.50276602    -1.84000
O282        O  0.56966860  0.46358003  0.02460213    -0.74700
O283        O  0.45145353  0.42592138  0.49640415    -0.74500
O284        O  0.46299604  0.51637454  0.06102691    -0.74000
O285        O  0.54158583  0.42487896  0.49752304    -0.74700
O286        O  0.52467319  0.51369926  0.06183555    -0.74300
O287        O  0.42182829  0.46498636  0.02273815    -0.74900
O288        O  0.45287238  0.57725834  0.47938717    -0.74300
O289        O  0.49805345  0.46392876  0.44451162    -0.75000
O290        O  0.41677989  0.55273445  0.00958131    -0.74400
O291        O  0.49658408  0.52542239  0.44318806    -0.74900
O292        O  0.54102375  0.57393898  0.48013304    -0.74800
O293        O  0.57417000  0.55139767  0.01285560    -0.74600
C294        C  0.56698006  0.43193275  0.01409127     0.77200
C295        C  0.42519934  0.43334861  0.01228539     0.77700
C296        C  0.49346677  0.51404467  0.07337494     0.76700
C297        C  0.42257515  0.57642459  0.49175259     0.77000
C298        C  0.49758182  0.49446704  0.43187895     0.78200
C299        C  0.56992252  0.57391084  0.49399174     0.77200
Zn300      Zn  0.49641195  0.46232002  0.27972905     1.49700
Zn301      Zn  0.45334974  0.49257790  0.23284866     1.49400
Zn302      Zn  0.50318187  0.54998250  0.26747128     1.49100
Zn303      Zn  0.54346975  0.48906157  0.23186686     1.49500
O304        O  0.49915811  0.49927448  0.25282678    -1.84000
O305        O  0.45137884  0.43088358  0.27945909    -0.74700
O306        O  0.42590936  0.54057384  0.23147562    -0.64900
O307        O  0.50233504  0.54717439  0.30799403    -0.74000
O308        O  0.41824669  0.45161776  0.24638586    -0.74700
O309        O  0.49672315  0.48629725  0.31342622    -0.74300
O310        O  0.46078289  0.58148504  0.25249245    -0.74900
O311        O  0.57508817  0.53476631  0.22794573    -0.74300
O312        O  0.46690306  0.48590514  0.19533376    -0.75000
O313        O  0.55000824  0.57668890  0.25397167    -0.74400
O314        O  0.52850034  0.48053173  0.19483304    -0.74900
O315        O  0.57484853  0.44709823  0.24716175    -0.74800
O316        O  0.53973830  0.42950943  0.28038939    -0.74600
C317        C  0.42221473  0.42995625  0.26578798     0.77200
C318        C  0.43297439  0.57371373  0.23811667     0.77700
C319        C  0.49952957  0.51860605  0.32259207     0.76700
C320        C  0.57433976  0.56748339  0.23706093     0.77000
C321        C  0.49755507  0.48363973  0.18315947     0.78200
C322        C  0.56898130  0.42659302  0.26693983     0.77200
Zn323      Zn  0.00270280  0.53103966  0.15333924     1.49700
Zn324      Zn  0.04703553  0.50072479  0.10635310     1.49400
Zn325      Zn  0.00047959  0.44318845  0.14181268     1.49100
Zn326      Zn  0.95727851  0.50278657  0.10617258     1.49500
O327        O  0.00181699  0.49365968  0.12681743    -1.84000
O328        O  0.04755962  0.56232552  0.15272709    -0.74700
O329        O  0.07808201  0.45447041  0.10645423    -0.74500
O330        O  0.00639263  0.44635901  0.18194186    -0.74000
O331        O  0.07909739  0.54521192  0.11804648    -0.74700
O332        O  0.00523039  0.50748708  0.18666273    -0.74300
O333        O  0.04238196  0.41249400  0.12549360    -0.74900
O334        O  0.92701455  0.45656721  0.10416341    -0.74300
O335        O  0.03194154  0.50348679  0.06890675    -0.75000
O336        O  0.95253211  0.41612294  0.13113886    -0.74400
O337        O  0.97084727  0.51145678  0.06878588    -0.74900
O338        O  0.92418590  0.54348489  0.12134582    -0.74800
O339        O  0.95786066  0.56291573  0.15467703    -0.74600
C340        C  0.07548778  0.56593879  0.13804104     0.77200
C341        C  0.07108258  0.42098972  0.11223813     0.77700
C342        C  0.00761277  0.47542213  0.19617814     0.76700
C343        C  0.92750616  0.42475554  0.11463024     0.77000
C344        C  0.00137377  0.50673640  0.05677886     0.78200
C345        C  0.92853157  0.56430673  0.14116413     0.77200
Zn346      Zn  0.99655869  0.53969289  0.40113749     1.49700
Zn347      Zn  0.99855782  0.45173649  0.39202449     1.49400
Zn348      Zn  0.95530450  0.50789161  0.35302036     1.49100
Zn349      Zn  0.04443170  0.50789898  0.35604710     1.49500
O350        O  0.99852605  0.50108144  0.37551517    -1.84000
O351        O  0.99886831  0.51858895  0.43568725    -0.74700
O352        O  0.95244373  0.42276101  0.38116552    -0.74500
O353        O  0.92058828  0.55001171  0.36511306    -0.74000
O354        O  0.00184268  0.45733697  0.43200567    -0.74700
O355        O  0.95078034  0.56939060  0.40017122    -0.74300
O356        O  0.92618515  0.46101351  0.35288160    -0.74900
O357        O  0.03241644  0.50676644  0.31833669    -0.74300
O358        O  0.04209639  0.42136072  0.37784646    -0.75000
O359        O  0.97115316  0.51135031  0.31552800    -0.74400
O360        O  0.07676946  0.46336175  0.35773522    -0.74900
O361        O  0.07462364  0.55276220  0.36767208    -0.74800
O362        O  0.03922366  0.57346969  0.39985272    -0.74600
C363        C  0.00156581  0.48685480  0.44577488     0.77200
C364        C  0.92748514  0.42989408  0.36430933     0.77700
C365        C  0.92309566  0.57083957  0.38512118     0.76700
C366        C  0.00278072  0.50648985  0.30502127     0.77000
C367        C  0.07071087  0.43028467  0.36469566     0.78200
C368        C  0.06846618  0.57532278  0.38629720     0.77200
C369        C  0.98383301  0.45927466  0.24018940    -0.01800
C370        C  0.01187780  0.47445433  0.22461174     0.07900
C371        C  0.03842406  0.49828467  0.23583053    -0.01900
C372        C  0.03467583  0.51003536  0.26173749    -0.01900
C373        C  0.00527699  0.49651776  0.27712336     0.08000
C374        C  0.98088635  0.46966639  0.26652165    -0.02100
Br375      Br  0.94404999  0.44554202  0.28785738    -0.00600
Br376      Br  0.94798155  0.42620225  0.22497418    -0.00700
Br377      Br  0.06855529  0.54675671  0.27518238    -0.00700
Br378      Br  0.07942272  0.51614061  0.21507707    -0.00600
C379        C  0.97546043  0.47175967  0.48934443    -0.01800
C380        C  0.00448485  0.48623770  0.47429493     0.07900
C381        C  0.03226054  0.50781937  0.48621196    -0.01900
C382        C  0.03016280  0.51620605  0.01287750    -0.01900
C383        C  0.00121141  0.50156607  0.02817451     0.08000
C384        C  0.97419040  0.47855522  0.01631857    -0.02100
Br385      Br  0.93587375  0.45480884  0.03659061    -0.00600
Br386      Br  0.93585609  0.44491112  0.47263525    -0.00700
Br387      Br  0.06569402  0.55013686  0.02772035    -0.00700
Br388      Br  0.07308838  0.52651825  0.46570262    -0.00600
C389        C  0.46494575  0.50424392  0.39015579    -0.01800
C390        C  0.49826160  0.49638252  0.40333341     0.07900
C391        C  0.53239018  0.50220281  0.39062309    -0.01900
C392        C  0.53307362  0.51338229  0.36439504    -0.01900
C393        C  0.49970391  0.52059588  0.35112677     0.08000
C394        C  0.46574295  0.51703520  0.36432902    -0.02100
Br395      Br  0.42043502  0.53027613  0.34682294    -0.00600
Br396      Br  0.41819909  0.49802553  0.40780088    -0.00700
Br397      Br  0.57963120  0.51826384  0.34628773    -0.00700
Br398      Br  0.57814239  0.49624433  0.40956195    -0.00600
C399        C  0.51431833  0.52969327  0.11831861    -0.01800
C400        C  0.49274966  0.50768465  0.10165345     0.07900
C401        C  0.47354243  0.47671609  0.11167241    -0.01900
C402        C  0.47575812  0.46808602  0.13829267    -0.01900
C403        C  0.49753615  0.48996556  0.15489121     0.08000
C404        C  0.51646544  0.52109607  0.14490259    -0.02100
Br405      Br  0.54335545  0.55389717  0.16778405    -0.00600
Br406      Br  0.53990397  0.57246718  0.10486614    -0.00700
Br407      Br  0.45000438  0.42559889  0.15195070    -0.00700
Br408      Br  0.44608551  0.44435103  0.08883311    -0.00600
C409        C  0.86229906  0.41171205  0.35346602    -0.01800
C410        C  0.89973330  0.40144511  0.35678147     0.07900
C411        C  0.91090070  0.36505880  0.35033507    -0.01900
C412        C  0.88481477  0.33914729  0.34096653    -0.01900
C413        C  0.84724475  0.34955099  0.33731174     0.08000
C414        C  0.83639952  0.38615565  0.34371983    -0.02100
Br415      Br  0.78627876  0.40291744  0.33841551    -0.00600
Br416      Br  0.84577102  0.46099043  0.36281728    -0.00700
Br417      Br  0.90107513  0.28896224  0.33448016    -0.00700
Br418      Br  0.96250080  0.35094567  0.35271320    -0.00600
C419        C  0.61176152  0.33731824  0.29084714    -0.01800
C420        C  0.64790939  0.34898759  0.29740898     0.07900
C421        C  0.65801789  0.38621961  0.29345742    -0.01900
C422        C  0.63222554  0.41160049  0.28334598    -0.01900
C423        C  0.59682176  0.39951229  0.27570857     0.08000
C424        C  0.58648427  0.36237705  0.27976837    -0.02100
Br425      Br  0.53781516  0.34548374  0.26964823    -0.00600
Br426      Br  0.59642834  0.28696201  0.29736645    -0.00700
Br427      Br  0.64462019  0.46345388  0.28164591    -0.00700
Br428      Br  0.70787996  0.40229290  0.29974348    -0.00600
C429        C  0.73617891  0.21097201  0.45399154    -0.01800
C430        C  0.76042223  0.23665271  0.46584014     0.07900
C431        C  0.77922605  0.26260595  0.45039263    -0.01900
C432        C  0.77227666  0.26426302  0.42348775    -0.01900
C433        C  0.74543889  0.24074821  0.41198888     0.08000
C434        C  0.72835894  0.21326142  0.42725601    -0.02100
Br435      Br  0.69272142  0.17973580  0.41212031    -0.00600
Br436      Br  0.71334580  0.17241918  0.47453409    -0.00700
Br437      Br  0.80135074  0.29780561  0.40252452    -0.00700
Br438      Br  0.81272349  0.29760030  0.46621507    -0.00600
C439        C  0.72841360  0.28273299  0.17807508    -0.01800
C440        C  0.74918407  0.25915732  0.16187064     0.07900
C441        C  0.78125888  0.24148214  0.17183642    -0.01900
C442        C  0.78913851  0.24285141  0.19863493    -0.01900
C443        C  0.76658501  0.26426524  0.21515270     0.08000
C444        C  0.73812068  0.28649058  0.20434332    -0.02100
Br445      Br  0.71211859  0.32242792  0.22559613    -0.00600
Br446      Br  0.68529754  0.30836267  0.16490877    -0.00700
Br447      Br  0.82945449  0.21392135  0.21258993    -0.00700
Br448      Br  0.81613413  0.21764751  0.14872114    -0.00600
C449        C  0.83682859  0.38563537  0.08854515    -0.01800
C450        C  0.84673464  0.34879452  0.08200541     0.07900
C451        C  0.88324662  0.33653613  0.08762686    -0.01900
C452        C  0.90922413  0.36070678  0.09927893    -0.01900
C453        C  0.89905099  0.39733571  0.10596307     0.08000
C454        C  0.86233579  0.40917155  0.10110095    -0.02100
Br455      Br  0.84575435  0.45713209  0.11324629    -0.00600
Br456      Br  0.78869185  0.40531173  0.07929673    -0.00700
Br457      Br  0.95914285  0.34327726  0.10540074    -0.00700
Br458      Br  0.89814059  0.28609221  0.08056768    -0.00600
C459        C  0.64261011  0.35819980  0.01383718    -0.01800
C460        C  0.64679266  0.35109700  0.04083077     0.07900
C461        C  0.62391505  0.37002144  0.05871798    -0.01900
C462        C  0.59728291  0.39565092  0.04978042    -0.01900
C463        C  0.59327865  0.40280789  0.02284315     0.08000
C464        C  0.61582200  0.38370668  0.00493705    -0.02100
Br465      Br  0.61123158  0.39383669  0.46823118    -0.00600
Br466      Br  0.67503703  0.33482422  0.48873874    -0.00700
Br467      Br  0.56478247  0.41954194  0.07464129    -0.00700
Br468      Br  0.62751060  0.35961515  0.09545992    -0.00600
C469        C  0.84286359  0.61186107  0.42239281    -0.01800
C470        C  0.84517810  0.64934766  0.41520776     0.07900
C471        C  0.87188944  0.66052019  0.39675760    -0.01900
C472        C  0.89560606  0.63414620  0.38522832    -0.01900
C473        C  0.89324194  0.59670055  0.39244155     0.08000
C474        C  0.86695368  0.58564632  0.41115174    -0.02100
Br475      Br  0.86482448  0.53459172  0.42192516    -0.00600
Br476      Br  0.80818935  0.59692995  0.44886966    -0.00700
Br477      Br  0.93165305  0.64908708  0.35964420    -0.00700
Br478      Br  0.87592613  0.71193559  0.38714412    -0.00600
C479        C  0.65819240  0.61113292  0.46488177    -0.01800
C480        C  0.64830212  0.64861450  0.46126545     0.07900
C481        C  0.61347963  0.66141366  0.47017856    -0.01900
C482        C  0.58949549  0.63745175  0.48329743    -0.01900
C483        C  0.59906866  0.60003072  0.48651714     0.08000
C484        C  0.63334867  0.58679046  0.47719245    -0.02100
Br485      Br  0.64526126  0.53483041  0.47976484    -0.00600
Br486      Br  0.70578142  0.59279950  0.45362057    -0.00700
Br487      Br  0.54313951  0.65601147  0.49695897    -0.00700
Br488      Br  0.59690163  0.71123370  0.46303792    -0.00600
C489        C  0.72273079  0.76478343  0.29444308    -0.01800
C490        C  0.75295537  0.74456227  0.28402527     0.07900
C491        C  0.77279893  0.71986829  0.29989615    -0.01900
C492        C  0.76356971  0.71646557  0.32631079    -0.01900
C493        C  0.73424057  0.73768084  0.33692333     0.08000
C494        C  0.71336513  0.76118276  0.32082263    -0.02100
Br495      Br  0.67095241  0.78729488  0.33480352    -0.00600
Br496      Br  0.69261718  0.79624494  0.27261474    -0.00700
Br497      Br  0.79305429  0.68429861  0.34800379    -0.00700
Br498      Br  0.81395598  0.69206277  0.28576463    -0.00600
C499        C  0.77354757  0.78002496  0.04861961    -0.01800
C500        C  0.76199163  0.74930756  0.03399850     0.07900
C501        C  0.74182735  0.72067264  0.04622573    -0.01900
C502        C  0.73295896  0.72292890  0.07283330    -0.01900
C503        C  0.74393728  0.75395344  0.08738354     0.08000
C504        C  0.76466244  0.78230479  0.07525711    -0.02100
Br505      Br  0.78054992  0.82469442  0.09518798    -0.00600
Br506      Br  0.80001919  0.81964578  0.03184250    -0.00700
Br507      Br  0.70748917  0.68264610  0.08966330    -0.00700
Br508      Br  0.72620782  0.67811595  0.02629054    -0.00600
C509        C  0.85864288  0.64285366  0.13954982    -0.01800
C510        C  0.84711835  0.64459578  0.16600404     0.07900
C511        C  0.86059477  0.61778428  0.18364989    -0.01900
C512        C  0.88612045  0.59069666  0.17517155    -0.01900
C513        C  0.89910013  0.59057519  0.14920951     0.08000
C514        C  0.88520542  0.61666796  0.13147833    -0.02100
Br515      Br  0.90448259  0.61827532  0.09640115    -0.00600
Br516      Br  0.83698251  0.67464991  0.11332476    -0.00700
Br517      Br  0.90268577  0.55301887  0.19918128    -0.00700
Br518      Br  0.84570495  0.61842832  0.21977190    -0.00600
C519        C  0.63757142  0.58552835  0.21948319    -0.01800
C520        C  0.60077732  0.59561521  0.22607002     0.07900
C521        C  0.58804262  0.63127407  0.21877509    -0.01900
C522        C  0.61169494  0.65627631  0.20555545    -0.01900
C523        C  0.64928510  0.64722327  0.20083496     0.08000
C524        C  0.66133213  0.61083823  0.20679875    -0.02100
Br525      Br  0.70986409  0.59412777  0.19571939    -0.00600
Br526      Br  0.65686059  0.53751077  0.22899149    -0.00700
Br527      Br  0.59132690  0.70209045  0.19292870    -0.00700
Br528      Br  0.53765144  0.64635063  0.22615269    -0.00600
C529        C  0.59686315  0.86191758  0.23389207    -0.01800
C530        C  0.60459981  0.89999083  0.23287434     0.07900
C531        C  0.63725840  0.91220130  0.22068991    -0.01900
C532        C  0.66126591  0.88656341  0.20866179    -0.01900
C533        C  0.65283462  0.84837961  0.20865969     0.08000
C534        C  0.62083666  0.83621206  0.22190662    -0.02100
Br535      Br  0.61099785  0.78426518  0.22548590    -0.00600
Br536      Br  0.55416232  0.84509105  0.25296521    -0.00700
Br537      Br  0.70522338  0.90428427  0.19159302    -0.00700
Br538      Br  0.64847662  0.96432653  0.21978823    -0.00600
C539        C  0.58923569  0.12272830  0.28823829    -0.01800
C540        C  0.59871252  0.10015134  0.26678608     0.07900
C541        C  0.63504976  0.10108919  0.25680743    -0.01900
C542        C  0.66147712  0.12512052  0.26776390    -0.01900
C543        C  0.65192477  0.14777380  0.28911753     0.08000
C544        C  0.61567355  0.14678569  0.29917409    -0.02100
Br545      Br  0.60223491  0.17898882  0.32760454    -0.00600
Br546      Br  0.54057759  0.11909325  0.30362623    -0.00700
Br547      Br  0.71088812  0.12734013  0.25344155    -0.00700
Br548      Br  0.64853510  0.06930506  0.22818964    -0.00600
C549        C  0.53792610  0.00368096  0.38935659    -0.01800
C550        C  0.50972743  0.02538549  0.40082215     0.07900
C551        C  0.48024130  0.03824045  0.38550913    -0.01900
C552        C  0.47797305  0.02805719  0.35906611    -0.01900
C553        C  0.50476849  0.00375527  0.34804008     0.08000
C554        C  0.53502774  0.99205193  0.36336695    -0.02100
Br555      Br  0.57099955  0.95721955  0.34985545    -0.00600
Br556      Br  0.57970572  0.98784239  0.41013165    -0.00700
Br557      Br  0.43821820  0.04844111  0.33837250    -0.00700
Br558      Br  0.44172259  0.06769300  0.40141158    -0.00600
C559        C  0.47019309  0.97964369  0.11250989    -0.01800
C560        C  0.49991629  0.99200064  0.09689157     0.07900
C561        C  0.52696884  0.01579873  0.10805878    -0.01900
C562        C  0.52548170  0.02484387  0.13473310    -0.01900
C563        C  0.49618052  0.01184619  0.15016651     0.08000
C564        C  0.46795471  0.99031703  0.13876842    -0.02100
Br565      Br  0.42610717  0.97491182  0.15958910    -0.00600
Br566      Br  0.43342537  0.94607060  0.09880618    -0.00700
Br567      Br  0.56470485  0.05327326  0.15055663    -0.00700
Br568      Br  0.56551127  0.03804354  0.08720008    -0.00600
C569        C  0.58513572  0.86652166  0.46119962    -0.01800
C570        C  0.59816086  0.89956997  0.47284277     0.07900
C571        C  0.63623682  0.90823564  0.47148302    -0.01900
C572        C  0.66123187  0.88321839  0.45997770    -0.01900
C573        C  0.64807158  0.85037189  0.44865598     0.08000
C574        C  0.60997918  0.84274250  0.44841955    -0.02100
Br575      Br  0.59202002  0.80009427  0.92981684    -0.00600
Br576      Br  0.53363115  0.85219194  0.96384465    -0.00700
Br577      Br  0.71378479  0.89315812  0.46056656    -0.00700
Br578      Br  0.65436858  0.95500136  0.48389347    -0.00600
C579        C  0.58445045  0.12572031  0.04070722    -0.01800
C580        C  0.59861314  0.09427235  0.02755891     0.07900
C581        C  0.63724257  0.08778233  0.02766991    -0.01900
C582        C  0.66135006  0.11255291  0.04030868    -0.01900
C583        C  0.64735516  0.14504936  0.05183653     0.08000
C584        C  0.60884253  0.15132319  0.05231168    -0.02100
Br585      Br  0.58971705  0.19489716  0.06941084    -0.00600
Br586      Br  0.53163407  0.13321874  0.54406079    -0.00700
Br587      Br  0.71400553  0.10286164  0.04077665    -0.00700
Br588      Br  0.65786944  0.04673839  0.00864952    -0.00600
C589        C  0.15592247  0.61692017  0.41411116    -0.01800
C590        C  0.14524634  0.65419540  0.41765965     0.07900
C591        C  0.10965096  0.66565934  0.40942514    -0.01900
C592        C  0.08535374  0.64026358  0.39765864    -0.01900
C593        C  0.09623481  0.60312852  0.39406520     0.08000
C594        C  0.13163077  0.59154995  0.40227847    -0.02100
Br595      Br  0.14645002  0.54041933  0.39837797    -0.00600
Br596      Br  0.20424536  0.60031035  0.42452668    -0.00700
Br597      Br  0.03726472  0.65662774  0.38577953    -0.00700
Br598      Br  0.09324285  0.71594873  0.41512454    -0.00600
C599        C  0.33845751  0.61356254  0.45690450    -0.01800
C600        C  0.34439604  0.65200301  0.45849008     0.07900
C601        C  0.37540215  0.66549794  0.47227351    -0.01900
C602        C  0.39956305  0.64069817  0.48483980    -0.01900
C603        C  0.39340560  0.60232861  0.48333718     0.08000
C604        C  0.36297909  0.58882482  0.46912089    -0.02100
Br605      Br  0.35643684  0.53631353  0.46464551    -0.00600
Br606      Br  0.29847779  0.59449231  0.43624780    -0.00700
Br607      Br  0.44101473  0.65922286  0.00452117    -0.00700
Br608      Br  0.38462044  0.71798984  0.47462164    -0.00600
C609        C  0.36125303  0.84689251  0.48070874    -0.01800
C610        C  0.35142278  0.84635609  0.45410451     0.07900
C611        C  0.36557897  0.87332513  0.43723554    -0.01900
C612        C  0.38911896  0.90112950  0.44694986    -0.01900
C613        C  0.39969288  0.90132744  0.47356519     0.08000
C614        C  0.38565077  0.87395989  0.49035576    -0.02100
Br615      Br  0.40095901  0.87217911  0.02629126    -0.00600
Br616      Br  0.34147881  0.80995896  0.00401827    -0.00700
Br617      Br  0.40464252  0.94029590  0.42380874    -0.00700
Br618      Br  0.35125543  0.87297240  0.40107509    -0.00600
C619        C  0.27702310  0.76668386  0.29457552    -0.01800
C620        C  0.24744106  0.74627650  0.28358899     0.07900
C621        C  0.22609993  0.72288195  0.29937679    -0.01900
C622        C  0.23378899  0.72029554  0.32604994    -0.01900
C623        C  0.26161885  0.74267720  0.33741915     0.08000
C624        C  0.28358696  0.76546604  0.32154221    -0.02100
Br625      Br  0.32105852  0.79674021  0.33675714    -0.00600
Br626      Br  0.30969965  0.79541736  0.27275190    -0.00700
Br627      Br  0.20598178  0.68554993  0.34695254    -0.00700
Br628      Br  0.18470079  0.69616804  0.28479997    -0.00600
C629        C  0.24679108  0.78548116  0.07686465    -0.01800
C630        C  0.27202811  0.75949819  0.08727868     0.07900
C631        C  0.28941177  0.73378100  0.07082556    -0.01900
C632        C  0.27977170  0.73247265  0.04431371    -0.01900
C633        C  0.25152725  0.75594640  0.03445271     0.08000
C634        C  0.23587725  0.78319195  0.05073643    -0.02100
Br635      Br  0.19757910  0.81592584  0.03801580    -0.00600
Br636      Br  0.22612500  0.82378837  0.09890071    -0.00700
Br637      Br  0.30676711  0.69941574  0.02164432    -0.00700
Br638      Br  0.32469015  0.69903085  0.08492433    -0.00600
C639        C  0.09317837  0.62599506  0.16011262    -0.01800
C640        C  0.10399616  0.59421948  0.14550318     0.07900
C641        C  0.14231103  0.58859654  0.14041784    -0.01900
C642        C  0.16884329  0.61396267  0.14990447    -0.01900
C643        C  0.15780258  0.64420441  0.16537028     0.08000
C644        C  0.12003888  0.65006461  0.17046696    -0.02100
Br645      Br  0.10532292  0.69162139  0.19185612    -0.00600
Br646      Br  0.04156859  0.63918272  0.16488240    -0.00700
Br647      Br  0.22054016  0.60837170  0.14093296    -0.00700
Br648      Br  0.15965218  0.54600185  0.12120078    -0.00600
C649        C  0.37036454  0.65860699  0.23253448    -0.01800
C650        C  0.35817181  0.65550951  0.20652255     0.07900
C651        C  0.37242387  0.62730940  0.19059624    -0.01900
C652        C  0.39862676  0.60214187  0.20060327    -0.01900
C653        C  0.40903870  0.60353180  0.22722723     0.08000
C654        C  0.39558843  0.63268699  0.24292672    -0.02100
Br655      Br  0.41015721  0.63657522  0.27893648    -0.00600
Br656      Br  0.35169625  0.69819184  0.25416507    -0.00700
Br657      Br  0.42180060  0.56736327  0.17701387    -0.00700
Br658      Br  0.35407111  0.62175595  0.15557980    -0.00600
C659        C  0.40806549  0.86167389  0.23122047    -0.01800
C660        C  0.40008614  0.89983881  0.23166045     0.07900
C661        C  0.36678874  0.91277911  0.22062479    -0.01900
C662        C  0.34148282  0.88772442  0.20944098    -0.01900
C663        C  0.34939279  0.84942548  0.20898894     0.08000
C664        C  0.38294550  0.83653766  0.21997038    -0.02100
Br665      Br  0.39439036  0.78430192  0.22071430    -0.00600
Br666      Br  0.45336914  0.84372735  0.24656266    -0.00700
Br667      Br  0.29711746  0.90643181  0.19318697    -0.00700
Br668      Br  0.35708200  0.96522751  0.21913510    -0.00600
C669        C  0.15429400  0.36731155  0.35926087    -0.01800
C670        C  0.14851872  0.35096958  0.33457693     0.07900
C671        C  0.11684222  0.36051016  0.32007965    -0.01900
C672        C  0.09113714  0.38618213  0.33023371    -0.01900
C673        C  0.09647015  0.40157604  0.35521508     0.08000
C674        C  0.12818317  0.39232952  0.36960397    -0.02100
Br675      Br  0.13587217  0.41451644  0.40330401    -0.00600
Br676      Br  0.19883777  0.35657487  0.37857533    -0.00700
Br677      Br  0.04875628  0.40083965  0.30976298    -0.00700
Br678      Br  0.10782970  0.33719483  0.28693069    -0.00600
C679        C  0.35599079  0.37539798  0.30872813    -0.01800
C680        C  0.34204767  0.34912657  0.29119494     0.07900
C681        C  0.35269303  0.35055178  0.26474024    -0.01900
C682        C  0.37803612  0.37757084  0.25603834    -0.01900
C683        C  0.39261862  0.40361694  0.27371962     0.08000
C684        C  0.38099324  0.40258921  0.30005707    -0.02100
Br685      Br  0.39791927  0.43942562  0.32438234    -0.00600
Br686      Br  0.33954849  0.37486695  0.34446572    -0.00700
Br687      Br  0.39422389  0.37739266  0.22026426    -0.00700
Br688      Br  0.33334445  0.31451739  0.24053937    -0.00600
C689        C  0.36436325  0.08611652  0.27957238    -0.01800
C690        C  0.39955967  0.09778975  0.27030450     0.07900
C691        C  0.40832738  0.13602525  0.27183529    -0.01900
C692        C  0.38217550  0.16180035  0.28167324    -0.01900
C693        C  0.34762888  0.14974532  0.29147118     0.08000
C694        C  0.33946637  0.11163150  0.29090339    -0.02100
Br695      Br  0.29474694  0.09366992  0.30715558    -0.00600
Br696      Br  0.34816628  0.03540539  0.27575454    -0.00700
Br697      Br  0.39337008  0.21402155  0.28047957    -0.00700
Br698      Br  0.45665885  0.15395860  0.26176385    -0.00600
C699        C  0.24834231  0.21318008  0.42300732    -0.01800
C700        C  0.26359356  0.24402224  0.41011624     0.07900
C701        C  0.27000484  0.27696068  0.42394683    -0.01900
C702        C  0.26054720  0.27923954  0.45043908    -0.01900
C703        C  0.24434951  0.24869470  0.46316375     0.08000
C704        C  0.23828608  0.21562844  0.44938251    -0.02100
Br705      Br  0.21711365  0.17342571  0.46678275    -0.00600
Br706      Br  0.24193089  0.16728302  0.40436107    -0.00700
Br707      Br  0.26905842  0.32459718  0.46936555    -0.00700
Br708      Br  0.29038064  0.31936242  0.40633265    -0.00600
C709        C  0.27408673  0.22823758  0.20334328    -0.01800
C710        C  0.24516365  0.25061205  0.21353151     0.07900
C711        C  0.22920417  0.27816939  0.19774092    -0.01900
C712        C  0.24144412  0.28287151  0.17200906    -0.01900
C713        C  0.26683471  0.25732337  0.16087991     0.08000
C714        C  0.28407864  0.23092189  0.17695622    -0.02100
Br715      Br  0.32364788  0.20038894  0.16330578    -0.00600
Br716      Br  0.30257682  0.19578230  0.22559054    -0.00700
Br717      Br  0.22340878  0.32532366  0.15295529    -0.00700
Br718      Br  0.18898401  0.30854269  0.21073737    -0.00600
C719        C  0.13392481  0.36691269  0.06591637    -0.01800
C720        C  0.14575676  0.33762862  0.08175444     0.07900
C721        C  0.13058973  0.33360917  0.10688368    -0.01900
C722        C  0.10659676  0.36083942  0.11717579    -0.01900
C723        C  0.09601405  0.39146718  0.10178814     0.08000
C724        C  0.10875634  0.39343316  0.07565196    -0.02100
Br725      Br  0.09088015  0.43133554  0.05231265    -0.00600
Br726      Br  0.15266100  0.37060549  0.03084866    -0.00700
Br727      Br  0.09058218  0.35696422  0.15291266    -0.00700
Br728      Br  0.14147581  0.28967557  0.12671323    -0.00600
C729        C  0.33554786  0.38613213  0.03149189    -0.01800
C730        C  0.34897491  0.35353472  0.04313178     0.07900
C731        C  0.38746992  0.34667892  0.04393377    -0.01900
C732        C  0.41241455  0.37207043  0.03286629    -0.01900
C733        C  0.39895617  0.40436812  0.02068059     0.08000
C734        C  0.36045034  0.41139898  0.02028907    -0.02100
Br735      Br  0.34142970  0.45511998  0.00358838    -0.00600
Br736      Br  0.28286583  0.39544108  0.02964743    -0.00700
Br737      Br  0.46509995  0.36357131  0.03606762    -0.00700
Br738      Br  0.40613078  0.30305305  0.06123100    -0.00600
C739        C  0.39968397  0.10106461  0.04921629    -0.01800
C740        C  0.40232017  0.09469621  0.02212469     0.07900
C741        C  0.37814858  0.11285818  0.00504646    -0.01900
C742        C  0.35153521  0.13763891  0.01490243    -0.01900
C743        C  0.34969234  0.14528265  0.04197103     0.08000
C744        C  0.37361105  0.12652008  0.05911938    -0.02100
Br745      Br  0.37227875  0.13702161  0.09592710    -0.00600
Br746      Br  0.43296197  0.07595850  0.07279054    -0.00700
Br747      Br  0.31648599  0.15957468  0.99102619    -0.00700
Br748      Br  0.38072121  0.10258395  0.46821249    -0.00600
C749        C  0.87115330  0.13249629  0.31484786    -0.01800
C750        C  0.84950810  0.15333898  0.33229342     0.07900
C751        C  0.85362775  0.14804889  0.35942854    -0.01900
C752        C  0.87836299  0.12123319  0.36898802    -0.01900
C753        C  0.89931923  0.09977286  0.35153702     0.08000
C754        C  0.89606033  0.10576481  0.32443785    -0.02100
Br755      Br  0.92633488  0.07790603  0.30031808    -0.00600
Br756      Br  0.86540829  0.13934450  0.27786969    -0.00700
Br757      Br  0.88215495  0.11251933  0.40593632    -0.00700
Br758      Br  0.82597863  0.17812610  0.38380600    -0.00600
C759        C  0.86282724  0.86719808  0.42992596    -0.01800
C760        C  0.84376904  0.84547317  0.41166890     0.07900
C761        C  0.85042444  0.85077331  0.38477269    -0.01900
C762        C  0.87618412  0.87748950  0.37625399    -0.01900
C763        C  0.89547323  0.89930724  0.39454152     0.08000
C764        C  0.88846324  0.89393889  0.42151399    -0.02100
Br765      Br  0.91234723  0.92406583  0.44765628    -0.00600
Br766      Br  0.85214845  0.86187240  0.46660168    -0.00700
Br767      Br  0.88641524  0.88231421  0.33953901    -0.00700
Br768      Br  0.82549649  0.82019185  0.35935204    -0.00600
C769        C  0.12540182  0.89120941  0.38060177    -0.01800
C770        C  0.10220211  0.90968001  0.39856807     0.07900
C771        C  0.10827241  0.90466026  0.42566330    -0.01900
C772        C  0.13485412  0.87904797  0.43449219    -0.01900
C773        C  0.15664511  0.85942701  0.41643334     0.08000
C774        C  0.15321753  0.86716600  0.38957492    -0.02100
Br775      Br  0.18767925  0.84587139  0.36478397    -0.00600
Br776      Br  0.11798634  0.89609626  0.34351329    -0.00700
Br777      Br  0.13988855  0.86967285  0.47132775    -0.00700
Br778      Br  0.08130228  0.93332139  0.45130426    -0.00600
C779        C  0.13208739  0.09074681  0.35313736    -0.01800
C780        C  0.09377268  0.09792810  0.35106863     0.07900
C781        C  0.08141591  0.12910990  0.33701238    -0.01900
C782        C  0.10730631  0.15375096  0.32609147    -0.01900
C783        C  0.14558940  0.14679092  0.32849851     0.08000
C784        C  0.15785746  0.11506861  0.34185066    -0.02100
Br785      Br  0.21015286  0.10602203  0.34599919    -0.00600
Br786      Br  0.14943190  0.04827229  0.37237126    -0.00700
Br787      Br  0.09048305  0.19691314  0.30748774    -0.00700
Br788      Br  0.02909542  0.13689069  0.33126316    -0.00600
C789        C  0.96622293  0.99978363  0.23373511    -0.01800
C790        C  0.99472031  0.02199479  0.22333643     0.07900
C791        C  0.02306174  0.03490122  0.23958243    -0.01900
C792        C  0.02394262  0.02424956  0.26594404    -0.01900
C793        C  0.99690571  0.99943874  0.27599694     0.08000
C794        C  0.96769675  0.98780354  0.25969043    -0.02100
Br795      Br  0.93097325  0.95307005  0.27189450    -0.00600
Br796      Br  0.92566284  0.98436911  0.21166186    -0.00700
Br797      Br  0.06197496  0.04520395  0.28783839    -0.00700
Br798      Br  0.06174134  0.06547552  0.22517528    -0.00600
C799        C  0.02652052  0.02392400  0.48580578    -0.01800
C800        C  0.99260090  0.02340586  0.47261926     0.07900
C801        C  0.95989410  0.01526757  0.48614281    -0.01900
C802        C  0.96130084  0.00368435  0.01228473    -0.01900
C803        C  0.99572517  0.00282558  0.02586981     0.08000
C804        C  0.02826242  0.01481790  0.01240538    -0.02100
Br805      Br  0.07579129  0.02076315  0.02934869    -0.00600
Br806      Br  0.07105373  0.03586231  0.46663655    -0.00700
Br807      Br  0.91531054  0.98726645  0.02783931    -0.00700
Br808      Br  0.91312957  0.02017567  0.46820555    -0.00600
C809        C  0.84097747  0.12771011  0.10824198    -0.01800
C810        C  0.84770075  0.15141625  0.08641253     0.07900
C811        C  0.88331438  0.14978424  0.07440584    -0.01900
C812        C  0.91104052  0.12580361  0.08413926    -0.01900
C813        C  0.90406225  0.10334154  0.10592001     0.08000
C814        C  0.86916373  0.10434228  0.11782616    -0.02100
Br815      Br  0.86045543  0.07313022  0.14776684    -0.00600
Br816      Br  0.79369652  0.12518228  0.12609695    -0.00700
Br817      Br  0.95833870  0.12181363  0.06665715    -0.00700
Br818      Br  0.89489654  0.17805692  0.04352896    -0.00600
C819        C  0.88802598  0.84705694  0.17252533    -0.01800
C820        C  0.84987124  0.85415109  0.17038476     0.07900
C821        C  0.83772863  0.88650457  0.15769880    -0.01900
C822        C  0.86357432  0.91196416  0.14756189    -0.01900
C823        C  0.90197786  0.90401195  0.14848029     0.08000
C824        C  0.91393725  0.87106541  0.16101417    -0.02100
Br825      Br  0.96566172  0.85683423  0.16155582    -0.00600
Br826      Br  0.90464258  0.80429465  0.19178997    -0.00700
Br827      Br  0.84579329  0.95849500  0.13394188    -0.00700
Br828      Br  0.78556240  0.89500400  0.15285356    -0.00600
C829        C  0.09903481  0.86561067  0.13637221    -0.01800
C830        C  0.10344573  0.90289027  0.14321193     0.07900
C831        C  0.13087498  0.91296753  0.16127372    -0.01900
C832        C  0.15503928  0.88610101  0.17176577    -0.01900
C833        C  0.15154294  0.84829988  0.16450395     0.08000
C834        C  0.12235358  0.83831044  0.14715071    -0.02100
Br835      Br  0.11111358  0.78716173  0.13918947    -0.00600
Br836      Br  0.05966287  0.85207672  0.11276740    -0.00700
Br837      Br  0.19233919  0.90254121  0.19605063    -0.00700
Br838      Br  0.13423311  0.96402133  0.17222565    -0.00600
C839        C  0.11993453  0.16008717  0.08820013    -0.01800
C840        C  0.15630221  0.14827029  0.08222359     0.07900
C841        C  0.16637978  0.11108928  0.08677236    -0.01900
C842        C  0.14075494  0.08622161  0.09775118    -0.01900
C843        C  0.10408415  0.09777807  0.10336075     0.08000
C844        C  0.09384373  0.13493663  0.09836313    -0.02100
Br845      Br  0.04366178  0.15180849  0.10421311    -0.00600
Br846      Br  0.10590873  0.21130670  0.08371642    -0.00700
Br847      Br  0.15710468  0.03674572  0.10630672    -0.00700
Br848      Br  0.21504249  0.09349205  0.07687229    -0.00600
Zn849      Zn  0.00351757  0.96609336  0.65185790     1.49700
Zn850      Zn  0.95572890  0.99592554  0.60610036     1.49400
Zn851      Zn  0.00381673  0.05294213  0.64039251     1.49100
Zn852      Zn  0.04470072  0.99277178  0.60249396     1.49500
O853        O  0.00208242  0.00272616  0.62509027    -1.84000
O854        O  0.95867835  0.93554276  0.65306357    -0.74700
O855        O  0.92422836  0.04143209  0.60808702    -0.74500
O856        O  0.99941267  0.05007743  0.68067885    -0.74000
O857        O  0.92488436  0.95127823  0.61903998    -0.74700
O858        O  0.00341597  0.98914098  0.68547595    -0.74300
O859        O  0.96105737  0.08401991  0.62560849    -0.74900
O860        O  0.07568768  0.03868663  0.60083941    -0.74300
O861        O  0.96779349  0.99640964  0.56800650    -0.75000
O862        O  0.05138607  0.07887248  0.62882334    -0.74400
O863        O  0.02805865  0.98686681  0.56521911    -0.74900
O864        O  0.07787884  0.95000505  0.61549603    -0.74800
O865        O  0.04738635  0.93348053  0.65112820    -0.74600
C866        C  0.92987881  0.93154529  0.63937099     0.77200
C867        C  0.93125805  0.07486796  0.61390562     0.77700
C868        C  0.99992285  0.02114237  0.69497451     0.76700
C869        C  0.07577852  0.07025265  0.61181218     0.77000
C870        C  0.99720077  0.99394558  0.55440528     0.78200
C871        C  0.07475043  0.93011202  0.63588546     0.77200
Zn872      Zn  0.99543409  0.96322548  0.90126004     1.49700
Zn873      Zn  0.95068138  0.99226151  0.85394533     1.49400
Zn874      Zn  0.99603026  0.05067863  0.88931246     1.49100
Zn875      Zn  0.03994630  0.99182495  0.85363350     1.49500
O876        O  0.99538130  0.00022306  0.87449147    -1.84000
O877        O  0.95334493  0.92869360  0.89946787    -0.74700
O878        O  0.91952257  0.03781306  0.85361672    -0.74500
O879        O  0.99499318  0.04830297  0.92932758    -0.74000
O880        O  0.91841179  0.94873060  0.86708255    -0.74700
O881        O  0.99192400  0.98735114  0.93530973    -0.74300
O882        O  0.95211735  0.07976161  0.87546709    -0.74900
O883        O  0.06941710  0.03778622  0.85151628    -0.74300
O884        O  0.96588634  0.99122541  0.81636596    -0.75000
O885        O  0.04094950  0.07953151  0.87617728    -0.74400
O886        O  0.02708868  0.98425573  0.81591488    -0.74900
O887        O  0.07474629  0.95373232  0.86934239    -0.74800
O888        O  0.04148450  0.93369674  0.90249387    -0.74600
C889        C  0.92389919  0.92676573  0.88618619     0.77200
C890        C  0.92468409  0.07084459  0.86119451     0.77700
C891        C  0.99279232  0.02004336  0.94415633     0.76700
C892        C  0.06681085  0.07032795  0.86050291     0.77000
C893        C  0.99658065  0.98996610  0.80413221     0.78200
C894        C  0.07125759  0.93348549  0.88944602     0.77200
Zn895      Zn  0.26201493  0.20541519  0.58455735     1.49700
Zn896      Zn  0.29418927  0.24937924  0.53780734     1.49400
Zn897      Zn  0.20549892  0.24534453  0.54453616     1.49100
Zn898      Zn  0.25827802  0.29465967  0.58170185     1.49500
O899        O  0.25405348  0.24849449  0.56232386    -1.84000
O900        O  0.30276783  0.17059374  0.57046332    -0.74700
O901        O  0.27459063  0.25023331  0.00275497    -0.74500
O902        O  0.17808678  0.19867129  0.55601172    -0.74000
O903        O  0.32517604  0.20501508  0.53855578    -0.74700
O904        O  0.21537169  0.17583471  0.58637730    -0.74300
O905        O  0.21309001  0.24606252  0.50461579    -0.74900
O906        O  0.20841196  0.31932661  0.58367653    -0.74300
O907        O  0.32644206  0.29302899  0.53965744    -0.75000
O908        O  0.17167618  0.28763417  0.55697122    -0.74400
O909        O  0.29679496  0.33023336  0.56692926    -0.74900
O910        O  0.26998034  0.28388556  0.61873899    -0.74800
O911        O  0.26916972  0.22259487  0.62157996    -0.74600
C912        C  0.32479802  0.17512484  0.55126807     0.77200
C913        C  0.24338379  0.24846651  0.99172361     0.77700
C914        C  0.18483123  0.17546090  0.57409733     0.76700
C915        C  0.17686383  0.31359406  0.57343819     0.77000
C916        C  0.32285950  0.32410584  0.55071961     0.78200
C917        C  0.27020247  0.25448665  0.63220235     0.77200
Zn918      Zn  0.20715436  0.24723639  0.83794199     1.49700
Zn919      Zn  0.29572850  0.24877093  0.82730965     1.49400
Zn920      Zn  0.23894858  0.20334070  0.79053848     1.49100
Zn921      Zn  0.23662489  0.29309364  0.79163460     1.49500
O922        O  0.24542988  0.24801597  0.81177900    -1.84000
O923        O  0.22990918  0.24343636  0.87197971    -0.74700
O924        O  0.32624916  0.20399697  0.81453018    -0.74500
O925        O  0.19597192  0.17056516  0.80305749    -0.74000
O926        O  0.29113584  0.24815322  0.86745139    -0.74700
O927        O  0.17315313  0.20452862  0.83537027    -0.74300
O928        O  0.28595437  0.17308191  0.79026608    -0.74900
O929        O  0.23462072  0.27951705  0.75415449    -0.74300
O930        O  0.32402988  0.29461589  0.81446741    -0.75000
O931        O  0.23455882  0.21800343  0.75298879    -0.74400
O932        O  0.28164960  0.32482240  0.79130445    -0.74900
O933        O  0.19328234  0.32524468  0.80486110    -0.74800
O934        O  0.17710143  0.29304773  0.83970363    -0.74600
C935        C  0.26209849  0.24497465  0.88159679     0.77200
C936        C  0.31842463  0.17689650  0.79953559     0.77700
C937        C  0.17264415  0.17561970  0.82142812     0.76700
C938        C  0.23641764  0.24920590  0.74162253     0.77000
C939        C  0.31445857  0.32154473  0.79985599     0.78200
C940        C  0.17406681  0.32153051  0.82555673     0.77200
Zn941      Zn  0.21647659  0.74736061  0.65881237     1.49700
Zn942      Zn  0.24821685  0.70298438  0.70528973     1.49400
Zn943      Zn  0.30413994  0.75123369  0.66978134     1.49100
Zn944      Zn  0.24334673  0.79275931  0.70640875     1.49500
O945        O  0.25387724  0.74857597  0.68526343    -1.84000
O946        O  0.18507210  0.70236339  0.65894824    -0.74700
O947        O  0.29595466  0.67502557  0.70616670    -0.74500
O948        O  0.30062464  0.75529866  0.62971245    -0.74000
O949        O  0.20712613  0.66868403  0.69153725    -0.74700
O950        O  0.23968819  0.74906370  0.62517344    -0.74300
O951        O  0.33564418  0.70699382  0.68185044    -0.74900
O952        O  0.28833427  0.82530278  0.70792561    -0.74300
O953        O  0.24268057  0.71629012  0.74288807    -0.75000
O954        O  0.33100931  0.79636410  0.68421594    -0.74400
O955        O  0.23868596  0.77780609  0.74372086    -0.74900
O956        O  0.19888744  0.82361014  0.69346909    -0.74800
O957        O  0.18446643  0.79187871  0.65845316    -0.74600
C958        C  0.18482723  0.67313785  0.67252558     0.77200
C959        C  0.32830513  0.68016084  0.69713863     0.77700
C960        C  0.27152046  0.75392650  0.61557142     0.76700
C961        C  0.32134708  0.82260192  0.69942381     0.77000
C962        C  0.24155413  0.74681270  0.75523864     0.78200
C963        C  0.17947598  0.81980329  0.67290852     0.77200
Zn964      Zn  0.20950335  0.75358601  0.91085093     1.49700
Zn965      Zn  0.23866758  0.70818779  0.95771907     1.49400
Zn966      Zn  0.29762640  0.74906592  0.91930025     1.49100
Zn967      Zn  0.24385413  0.79724289  0.95620488     1.49500
O968        O  0.24830958  0.75177351  0.93611167    -1.84000
O969        O  0.17620669  0.71056045  0.91155624    -0.74700
O970        O  0.28335948  0.67528615  0.95767271    -0.74500
O971        O  0.29162657  0.74472028  0.87941968    -0.74000
O972        O  0.19389267  0.67741349  0.94550524    -0.74700
O973        O  0.23063701  0.75181880  0.87640144    -0.74300
O974        O  0.32534708  0.70437429  0.93349592    -0.74900
O975        O  0.29044744  0.82516875  0.95512897    -0.74300
O976        O  0.23700547  0.72364571  0.99540480    -0.75000
O977        O  0.32963096  0.79367084  0.93005966    -0.74400
O978        O  0.24228038  0.78492256  0.99384037    -0.74900
O979        O  0.20368386  0.83257510  0.94360198    -0.74800
O980        O  0.17978068  0.79909891  0.91174372    -0.74600
C981        C  0.17293102  0.68223249  0.92578580     0.77200
C982        C  0.31610537  0.67818467  0.94876416     0.77700
C983        C  0.26191767  0.74676124  0.86593224     0.76700
C984        C  0.32233615  0.82060713  0.94535624     0.77000
C985        C  0.24198287  0.75479862  0.50652618     0.78200
C986        C  0.18114569  0.82882076  0.92473529     0.77200
Zn987      Zn  0.49973446  0.96464847  0.97006866     1.49700
Zn988      Zn  0.45602627  0.98904059  0.51831572     1.49400
Zn989      Zn  0.54519554  0.98734329  0.51913422     1.49100
Zn990      Zn  0.50238977  0.04995042  0.98505419     1.49500
O991        O  0.50091820  0.99870385  0.99838489    -1.84000
O992        O  0.45604258  0.93276171  0.96854696    -0.74700
O993        O  0.46980999  0.98596799  0.55598621    -0.74500
O994        O  0.57620052  0.94482637  0.50378604    -0.74000
O995        O  0.42380043  0.94652025  0.50386175    -0.74700
O996        O  0.54310369  0.93290176  0.96864442    -0.74300
O997        O  0.53099036  0.97959074  0.55666727    -0.74900
O998        O  0.54621204  0.07704953  0.00154118    -0.74300
O999        O  0.42493958  0.03405982  0.51935231    -0.75000
O1000       O  0.57689312  0.03277991  0.52244172    -0.74400
O1001       O  0.45655332  0.07759399  0.99827356    -0.74900
O1002       O  0.50633887  0.05042413  0.94459121    -0.74800
O1003       O  0.50142210  0.99004476  0.93747096    -0.74600
C1004       C  0.42783066  0.92820827  0.98275104     0.77200
C1005       C  0.50024649  0.98428021  0.56841476     0.77700
C1006       C  0.57116114  0.92701819  0.98268790     0.76700
C1007       C  0.57287364  0.06656157  0.51612022     0.77000
C1008       C  0.42913728  0.06734036  0.51221550     0.78200
C1009       C  0.50530832  0.02259506  0.92919038     0.77200
Zn1010     Zn  0.50230452  0.95965742  0.72402828     1.49700
Zn1011     Zn  0.54702688  0.99392674  0.76924533     1.49400
Zn1012     Zn  0.49911057  0.04864001  0.73237291     1.49100
Zn1013     Zn  0.45774748  0.99148021  0.77130638     1.49500
O1014       O  0.50141006  0.99922406  0.74917619    -1.84000
O1015       O  0.54709064  0.92803401  0.72544228    -0.74700
O1016       O  0.57822947  0.03879755  0.76639620    -0.74500
O1017       O  0.49840084  0.04198756  0.69216480    -0.74000
O1018       O  0.57958840  0.94959909  0.75873983    -0.74700
O1019       O  0.50119766  0.98057618  0.68928612    -0.74300
O1020       O  0.54373765  0.07963456  0.74480634    -0.74900
O1021       O  0.42744784  0.03795072  0.77234703    -0.74300
O1022       O  0.53349571  0.99612201  0.80689372    -0.75000
O1023       O  0.45260791  0.07736219  0.74473384    -0.74400
O1024       O  0.47266645  0.98735420  0.80903754    -0.74900
O1025       O  0.42446904  0.94898907  0.75821313    -0.74800
O1026       O  0.45826775  0.92721390  0.72546792    -0.74600
C1027       C  0.57552035  0.92704336  0.73984651     0.77200
C1028       C  0.57247211  0.07132974  0.75814142     0.77700
C1029       C  0.49902414  0.01209154  0.67875044     0.76700
C1030       C  0.42783577  0.06958886  0.76164933     0.77000
C1031       C  0.50357475  0.99433128  0.81993211     0.78200
C1032       C  0.42919460  0.92648849  0.73929106     0.77200
Zn1033     Zn  0.75882259  0.79333227  0.70788412     1.49700
Zn1034     Zn  0.79259456  0.75047109  0.66236971     1.49400
Zn1035     Zn  0.75566404  0.70339833  0.70546987     1.49100
Zn1036     Zn  0.70171407  0.75026303  0.66869517     1.49500
O1037       O  0.75102736  0.74947591  0.68604196    -1.84000
O1038       O  0.79998641  0.82867956  0.69575712    -0.74700
O1039       O  0.82487206  0.70617863  0.66396624    -0.74500
O1040       O  0.75959905  0.71583714  0.74313710    -0.74000
O1041       O  0.82406609  0.79533600  0.66381183    -0.74700
O1042       O  0.76360654  0.77737363  0.74496911    -0.74300
O1043       O  0.79625001  0.66902206  0.69139633    -0.74900
O1044       O  0.67037248  0.70319990  0.67831499    -0.74300
O1045       O  0.77323645  0.75115712  0.62729569    -0.75000
O1046       O  0.70887918  0.67427839  0.70475702    -0.74400
O1047       O  0.71144930  0.75309431  0.62865101    -0.74900
O1048       O  0.67204509  0.79559785  0.68291263    -0.74800
O1049       O  0.71282694  0.82305452  0.70897031    -0.74600
C1050       C  0.82326089  0.82464359  0.67730055     0.77200
C1051       C  0.82161689  0.67477868  0.67460603     0.77700
C1052       C  0.76033664  0.74599324  0.75593023     0.76700
C1053       C  0.67749263  0.67633479  0.69376830     0.77000
C1054       C  0.74217858  0.75281583  0.61601231     0.78200
C1055       C  0.68065971  0.82108663  0.69918493     0.77200
Zn1056     Zn  0.73704714  0.70060157  0.91640994     1.49700
Zn1057     Zn  0.73822683  0.78947348  0.91213504     1.49400
Zn1058     Zn  0.70829377  0.75046994  0.96121694     1.49100
Zn1059     Zn  0.79555806  0.74842330  0.95093578     1.49500
O1060       O  0.74577551  0.74718294  0.93503367    -1.84000
O1061       O  0.72823591  0.71050574  0.87863234    -0.74700
O1062       O  0.69633184  0.82348544  0.92320478    -0.74500
O1063       O  0.67802983  0.70599013  0.96369800    -0.74000
O1064       O  0.73231665  0.77178021  0.87582335    -0.74700
O1065       O  0.69588831  0.66899622  0.93182466    -0.74300
O1066       O  0.67547104  0.79352265  0.95785569    -0.74900
O1067       O  0.79097401  0.74859092  0.99143471    -0.74300
O1068       O  0.78374069  0.81996356  0.91028714    -0.75000
O1069       O  0.72973541  0.75364715  0.49539028    -0.74400
O1070       O  0.82407987  0.79342984  0.93710066    -0.74900
O1071       O  0.82527281  0.70363397  0.93800488    -0.74800
O1072       O  0.78365350  0.67080364  0.91589136    -0.74600
C1073       C  0.73010737  0.74003955  0.86530762     0.77200
C1074       C  0.67434735  0.82075411  0.94246117     0.77700
C1075       C  0.67544739  0.67577008  0.95146724     0.76700
C1076       C  0.76153846  0.75101361  0.50538730     0.77000
C1077       C  0.81574491  0.81824747  0.92039374     0.78200
C1078       C  0.81651818  0.67578988  0.92399689     0.77200
Zn1079     Zn  0.79551650  0.24879242  0.54782795     1.49700
Zn1080     Zn  0.73999467  0.20623231  0.58639891     1.49400
Zn1081     Zn  0.73853975  0.29597747  0.58292429     1.49100
Zn1082     Zn  0.70585962  0.24702631  0.53905760     1.49500
O1083       O  0.74559684  0.24956149  0.56402792    -1.84000
O1084       O  0.82654141  0.20610163  0.56303604    -0.74700
O1085       O  0.74033712  0.22383831  0.62347762    -0.74500
O1086       O  0.78545580  0.32503428  0.58310535    -0.74000
O1087       O  0.78526094  0.17431215  0.58500949    -0.74700
O1088       O  0.82506798  0.29565963  0.55749938    -0.74300
O1089       O  0.73520024  0.28518393  0.62086526    -0.74900
O1090       O  0.67384814  0.29171693  0.53784418    -0.74300
O1091       O  0.69606312  0.17283757  0.57692241    -0.75000
O1092       O  0.69634742  0.32870150  0.56830104    -0.74400
O1093       O  0.67365735  0.20286849  0.54277921    -0.74900
O1094       O  0.72770278  0.24266917  0.00457366    -0.74800
O1095       O  0.78921933  0.24260996  0.50806974    -0.74600
C1096       C  0.81834640  0.17841885  0.57727796     0.77200
C1097       C  0.74008569  0.25577044  0.63400112     0.77700
C1098       C  0.81754985  0.32210476  0.57317422     0.76700
C1099       C  0.67362818  0.32244098  0.54974973     0.77000
C1100       C  0.67323301  0.17543010  0.55808038     0.78200
C1101       C  0.75961741  0.24067089  0.99440273     0.77200
Zn1102     Zn  0.74059201  0.29203240  0.83627128     1.49700
Zn1103     Zn  0.79928701  0.25243833  0.79750987     1.49400
Zn1104     Zn  0.74155834  0.20303031  0.83193068     1.49100
Zn1105     Zn  0.71170991  0.25002448  0.78703132     1.49500
O1106       O  0.74915071  0.24945680  0.81336564    -1.84000
O1107       O  0.78683677  0.32279563  0.83861162    -0.74700
O1108       O  0.82955368  0.20732020  0.80921688    -0.74500
O1109       O  0.73882935  0.21350112  0.87017485    -0.74000
O1110       O  0.82735582  0.29722918  0.81168915    -0.74700
O1111       O  0.73499101  0.27473398  0.87316236    -0.74300
O1112       O  0.78782588  0.17357628  0.83057074    -0.74900
O1113       O  0.68057638  0.20538078  0.78471320    -0.74300
O1114       O  0.79560235  0.25757366  0.75747440    -0.75000
O1115       O  0.69877172  0.17091620  0.81795532    -0.74400
O1116       O  0.73453413  0.25450572  0.75347465    -0.74900
O1117       O  0.67905567  0.29327792  0.78937536    -0.74800
O1118       O  0.69743830  0.32494048  0.82397165    -0.74600
C1119       C  0.81900303  0.32187105  0.82849868     0.77200
C1120       C  0.82077998  0.17914009  0.82286453     0.77700
C1121       C  0.73830277  0.24303383  0.88366284     0.76700
C1122       C  0.67828102  0.17614420  0.79806870     0.77000
C1123       C  0.76627615  0.25837070  0.74354594     0.78200
C1124       C  0.67619506  0.32098686  0.80430927     0.77200
Zn1125     Zn  0.53990369  0.50994099  0.52455701     1.49700
Zn1126     Zn  0.49691169  0.45576311  0.98472947     1.49400
Zn1127     Zn  0.45060195  0.51143790  0.52314239     1.49100
Zn1128     Zn  0.49635240  0.54424857  0.97829555     1.49500
O1129       O  0.49593636  0.50427595  0.00275573    -1.84000
O1130       O  0.56966168  0.46365507  0.52461201    -0.74700
O1131       O  0.45146200  0.42593833  0.99637727    -0.74500
O1132       O  0.46295132  0.51636671  0.56104426    -0.74000
O1133       O  0.54158588  0.42483986  0.99749214    -0.74700
O1134       O  0.52462859  0.51373916  0.56184661    -0.74300
O1135       O  0.42179193  0.46496740  0.52275199    -0.74900
O1136       O  0.45295787  0.57727576  0.97937335    -0.74300
O1137       O  0.49807276  0.46395183  0.94449632    -0.75000
O1138       O  0.41672161  0.55271867  0.50961264    -0.74400
O1139       O  0.49669169  0.52544908  0.94319259    -0.74900
O1140       O  0.54111067  0.57394255  0.98017194    -0.74800
O1141       O  0.57408102  0.55148179  0.51284654    -0.74600
C1142       C  0.56698580  0.43199863  0.51411229     0.77200
C1143       C  0.42517963  0.43332762  0.51230447     0.77700
C1144       C  0.49342483  0.51405894  0.57339050     0.76700
C1145       C  0.42264839  0.57644130  0.99172381     0.77000
C1146       C  0.49764722  0.49449936  0.93187439     0.78200
C1147       C  0.57001568  0.57386578  0.99402435     0.77200
Zn1148     Zn  0.49643970  0.46233576  0.77975897     1.49700
Zn1149     Zn  0.45336310  0.49256641  0.73287681     1.49400
Zn1150     Zn  0.50319836  0.54999312  0.76746952     1.49100
Zn1151     Zn  0.54348517  0.48905261  0.73188062     1.49500
O1152       O  0.49917734  0.49927432  0.75284472    -1.84000
O1153       O  0.45139804  0.43090262  0.77951313    -0.74700
O1154       O  0.42588879  0.54054714  0.73151698    -0.64900
O1155       O  0.50236390  0.54721410  0.80799075    -0.74000
O1156       O  0.41828953  0.45157805  0.74640889    -0.74700
O1157       O  0.49677517  0.48633827  0.81344359    -0.74300
O1158       O  0.46079205  0.58148246  0.75248444    -0.74900
O1159       O  0.57511153  0.53475289  0.72795276    -0.74300
O1160       O  0.46691180  0.48591945  0.69535958    -0.75000
O1161       O  0.55002365  0.57668908  0.75396314    -0.74400
O1162       O  0.52850624  0.48052193  0.69484705    -0.74900
O1163       O  0.57486222  0.44708641  0.74717658    -0.74800
O1164       O  0.53976740  0.42952268  0.78041878    -0.74600
C1165       C  0.42224924  0.42994298  0.76582645     0.77200
C1166       C  0.43296256  0.57369555  0.73813277     0.77700
C1167       C  0.49957721  0.51865377  0.82259771     0.76700
C1168       C  0.57436031  0.56747526  0.73705865     0.77000
C1169       C  0.49755807  0.48364623  0.68317891     0.78200
C1170       C  0.56900307  0.42659313  0.76696219     0.77200
Zn1171     Zn  0.00272454  0.53105682  0.65332300     1.49700
Zn1172     Zn  0.04706252  0.50072256  0.60634088     1.49400
Zn1173     Zn  0.00047505  0.44321197  0.64180233     1.49100
Zn1174     Zn  0.95731152  0.50282116  0.60614622     1.49500
O1175       O  0.00183690  0.49367769  0.62680114    -1.84000
O1176       O  0.04758415  0.56233468  0.65270668    -0.74700
O1177       O  0.07808888  0.45445369  0.60644693    -0.74500
O1178       O  0.00636840  0.44638339  0.68193442    -0.74000
O1179       O  0.07912836  0.54520399  0.61803295    -0.74700
O1180       O  0.00523914  0.50751153  0.68665211    -0.74300
O1181       O  0.04237250  0.41249830  0.62549560    -0.74900
O1182       O  0.92703915  0.45661058  0.60412505    -0.74300
O1183       O  0.03198472  0.50349245  0.56889239    -0.75000
O1184       O  0.95252618  0.41616438  0.63111440    -0.74400
O1185       O  0.97089523  0.51149930  0.56876364    -0.74900
O1186       O  0.92421871  0.54351725  0.62131737    -0.74800
O1187       O  0.95788740  0.56293850  0.65465437    -0.74600
C1188       C  0.07551491  0.56594005  0.63802224     0.77200
C1189       C  0.07107617  0.42097809  0.61223829     0.77700
C1190       C  0.00760031  0.47544654  0.69617033     0.76700
C1191       C  0.92751620  0.42480104  0.61459483     0.77000
C1192       C  0.00142252  0.50676201  0.55676089     0.78200
C1193       C  0.92856141  0.56433367  0.64113846     0.77200
Zn1194     Zn  0.99653262  0.53965435  0.90115325     1.49700
Zn1195     Zn  0.99856415  0.45169655  0.89203752     1.49400
Zn1196     Zn  0.95528922  0.50784126  0.85303248     1.49100
Zn1197     Zn  0.04441368  0.50788586  0.85605682     1.49500
O1198       O  0.99851342  0.50104448  0.87552829    -1.84000
O1199       O  0.99882038  0.51854767  0.93570284    -0.74700
O1200       O  0.95246681  0.42269851  0.88116437    -0.74500
O1201       O  0.92056476  0.54995745  0.86512078    -0.74000
O1202       O  0.00182518  0.45729705  0.93202207    -0.74700
O1203       O  0.95075376  0.56935404  0.90017555    -0.74300
O1204       O  0.92618019  0.46095765  0.85289662    -0.74900
O1205       O  0.03240115  0.50676085  0.81834368    -0.74300
O1206       O  0.04212770  0.42134460  0.87786805    -0.75000
O1207       O  0.97113512  0.51129755  0.81553854    -0.74400
O1208       O  0.07676096  0.46335792  0.85773537    -0.74900
O1209       O  0.07460096  0.55274724  0.86769450    -0.74800
O1210       O  0.03920563  0.57342661  0.89988614    -0.74600
C1211       C  0.00152667  0.48681496  0.94579142     0.77200
C1212       C  0.92749777  0.42983228  0.86431552     0.77700
C1213       C  0.92306899  0.57079371  0.88512480     0.76700
C1214       C  0.00276474  0.50646321  0.80502901     0.77000
C1215       C  0.07072849  0.43028090  0.86470626     0.78200
C1216       C  0.06844707  0.57529171  0.88633005     0.77200
C1217       C  0.98381772  0.45928159  0.74018184    -0.01800
C1218       C  0.01185656  0.47447711  0.72460600     0.07900
C1219       C  0.03840211  0.49830234  0.73583133    -0.01900
C1220       C  0.03465754  0.51003436  0.76174305    -0.01900
C1221       C  0.00526397  0.49650176  0.77712791     0.08000
C1222       C  0.98087787  0.46965115  0.76651928    -0.02100
Br1223     Br  0.94406293  0.44549119  0.78785351    -0.00600
Br1224     Br  0.94796599  0.42621594  0.72495948    -0.00700
Br1225     Br  0.06853905  0.54674737  0.77519661    -0.00700
Br1226     Br  0.07940178  0.51616933  0.71508334    -0.00600
C1227       C  0.97541150  0.47172888  0.98936108    -0.01800
C1228       C  0.00443930  0.48620201  0.97431236     0.07900
C1229       C  0.03221192  0.50778736  0.98622950    -0.01900
C1230       C  0.03021540  0.51623247  0.51286099    -0.01900
C1231       C  0.00126383  0.50159218  0.52815739     0.08000
C1232       C  0.97424347  0.47858110  0.51630207    -0.02100
Br1233     Br  0.93593525  0.45482581  0.53657646    -0.00600
Br1234     Br  0.93580982  0.44487897  0.97265008    -0.00700
Br1235     Br  0.06575280  0.55015350  0.52770706    -0.00700
Br1236     Br  0.07304097  0.52648577  0.96572109    -0.00600
C1237       C  0.46500513  0.50432145  0.89016097    -0.01800
C1238       C  0.49832031  0.49643158  0.90333090     0.07900
C1239       C  0.53244898  0.50223597  0.89061799    -0.01900
C1240       C  0.53313170  0.51342655  0.86439290    -0.01900
C1241       C  0.49976196  0.52066032  0.85113012     0.08000
C1242       C  0.46580252  0.51711684  0.86433587    -0.02100
Br1243     Br  0.42049639  0.53037173  0.84683275    -0.00600
Br1244     Br  0.41825971  0.49813745  0.90781375    -0.00700
Br1245     Br  0.57968746  0.51828968  0.84628069    -0.00700
Br1246     Br  0.57820249  0.49623350  0.90954855    -0.00600
C1247       C  0.51433407  0.52967707  0.61832887    -0.01800
C1248       C  0.49271710  0.50770115  0.60167171     0.07900
C1249       C  0.47346790  0.47676412  0.61170150    -0.01900
C1250       C  0.47569860  0.46812913  0.63832072    -0.01900
C1251       C  0.49752807  0.48997284  0.65490957     0.08000
C1252       C  0.51649350  0.52107566  0.64491211    -0.02100
Br1253     Br  0.54345072  0.55383923  0.66778115    -0.00600
Br1254     Br  0.53996705  0.57241925  0.60486952    -0.00700
Br1255     Br  0.44989315  0.42568001  0.65199051    -0.00700
Br1256     Br  0.44592643  0.44444348  0.58888086    -0.00600
C1257       C  0.86230885  0.41163447  0.85349870    -0.01800
C1258       C  0.89975109  0.40137971  0.85678574     0.07900
C1259       C  0.91092902  0.36500969  0.85030437    -0.01900
C1260       C  0.88484405  0.33909877  0.84093302    -0.01900
C1261       C  0.84726374  0.34949010  0.83730802     0.08000
C1262       C  0.83641001  0.38608290  0.84374520    -0.02100
Br1263     Br  0.78627920  0.40283985  0.83846694    -0.00600
Br1264     Br  0.84577151  0.46089026  0.86289932    -0.00700
Br1265     Br  0.90112535  0.28893294  0.83439802    -0.00700
Br1266     Br  0.96254098  0.35092416  0.85263732    -0.00600
C1267       C  0.61177301  0.33731937  0.79088529    -0.01800
C1268       C  0.64793611  0.34897618  0.79741451     0.07900
C1269       C  0.65806191  0.38619695  0.79343453    -0.01900
C1270       C  0.63226772  0.41158242  0.78333016    -0.01900
C1271       C  0.59684273  0.39950746  0.77572837     0.08000
C1272       C  0.58649148  0.36238116  0.77981474    -0.02100
Br1273     Br  0.53779850  0.34550046  0.76974038    -0.00600
Br1274     Br  0.59642975  0.28697351  0.79743401    -0.00700
Br1275     Br  0.64469356  0.46342486  0.78159174    -0.00700
Br1276     Br  0.70794875  0.40224149  0.79967086    -0.00600
C1277       C  0.73622434  0.21091706  0.95398895    -0.01800
C1278       C  0.76042784  0.23663290  0.96583927     0.07900
C1279       C  0.77918086  0.26262541  0.95039506    -0.01900
C1280       C  0.77223235  0.26427370  0.92348967    -0.01900
C1281       C  0.74543785  0.24071220  0.91198592     0.08000
C1282       C  0.72840245  0.21319546  0.92725257    -0.02100
Br1283     Br  0.69282069  0.17960994  0.91211762    -0.00600
Br1284     Br  0.71344128  0.17233663  0.97453295    -0.00700
Br1285     Br  0.80125367  0.29787322  0.90253563    -0.00700
Br1286     Br  0.81259678  0.29768984  0.96622637    -0.00600
C1287       C  0.72845711  0.28277528  0.67807266    -0.01800
C1288       C  0.74920070  0.25917775  0.66186651     0.07900
C1289       C  0.78125109  0.24145911  0.67183254    -0.01900
C1290       C  0.78912444  0.24280557  0.69863184    -0.01900
C1291       C  0.76659865  0.26424665  0.71515021     0.08000
C1292       C  0.73816223  0.28650953  0.70434300    -0.02100
Br1293     Br  0.71218920  0.32245890  0.72560337    -0.00600
Br1294     Br  0.68538047  0.30847075  0.66490576    -0.00700
Br1295     Br  0.82938263  0.21379627  0.71258821    -0.00700
Br1296     Br  0.81610842  0.21759901  0.64871747    -0.00600
C1297       C  0.83683946  0.38567706  0.58851158    -0.01800
C1298       C  0.84674851  0.34883659  0.58197183     0.07900
C1299       C  0.88326753  0.33658705  0.58757995    -0.01900
C1300       C  0.90924603  0.36076334  0.59922408    -0.01900
C1301       C  0.89906507  0.39738537  0.60591903     0.08000
C1302       C  0.86234787  0.40921772  0.60106192    -0.02100
Br1303     Br  0.84576888  0.45718150  0.61320245    -0.00600
Br1304     Br  0.78869645  0.40534609  0.57927114    -0.00700
Br1305     Br  0.95918137  0.34335738  0.60531305    -0.00700
Br1306     Br  0.89817117  0.28614799  0.58051513    -0.00600
C1307       C  0.64264045  0.35828938  0.51385164    -0.01800
C1308       C  0.64681958  0.35117372  0.54084352     0.07900
C1309       C  0.62394991  0.37010184  0.55873424    -0.01900
C1310       C  0.59731821  0.39573555  0.54980069    -0.01900
C1311       C  0.59330582  0.40289214  0.52286401     0.08000
C1312       C  0.61585257  0.38379949  0.50495554    -0.02100
Br1313     Br  0.61119635  0.39372611  0.96821049    -0.00600
Br1314     Br  0.67500067  0.33472061  0.98872637    -0.00700
Br1315     Br  0.56482965  0.41963201  0.57466637    -0.00700
Br1316     Br  0.62755614  0.35969627  0.59547572    -0.00600
C1317       C  0.84284476  0.61184002  0.92239344    -0.01800
C1318       C  0.84515476  0.64932034  0.91519168     0.07900
C1319       C  0.87185417  0.66047735  0.89672817    -0.01900
C1320       C  0.89556479  0.63409409  0.88520334    -0.01900
C1321       C  0.89321257  0.59665630  0.89243831     0.08000
C1322       C  0.86693459  0.58561752  0.91116060    -0.02100
Br1323     Br  0.86481964  0.53457452  0.92196210    -0.00600
Br1324     Br  0.80817685  0.59692981  0.94888104    -0.00700
Br1325     Br  0.93158910  0.64901195  0.85959670    -0.00700
Br1326     Br  0.87588613  0.71188505  0.88709269    -0.00600
C1327       C  0.65820761  0.61110453  0.96482776    -0.01800
C1328       C  0.64834202  0.64861275  0.96130687     0.07900
C1329       C  0.61357388  0.66141554  0.97032799    -0.01900
C1330       C  0.58962593  0.63742666  0.98345450    -0.01900
C1331       C  0.59916987  0.59998343  0.98657149     0.08000
C1332       C  0.63339387  0.58674278  0.97714867    -0.02100
Br1333     Br  0.64526479  0.53476235  0.97961036    -0.00600
Br1334     Br  0.70571751  0.59275058  0.95341506    -0.00700
Br1335     Br  0.54335274  0.65596963  0.99726605    -0.00700
Br1336     Br  0.59700032  0.71127747  0.96332321    -0.00600
C1337       C  0.72276287  0.76477810  0.79444628    -0.01800
C1338       C  0.75298457  0.74454406  0.78403639     0.07900
C1339       C  0.77281696  0.71985185  0.79991478    -0.01900
C1340       C  0.76358121  0.71646623  0.82632955    -0.01900
C1341       C  0.73425677  0.73769704  0.83693479     0.08000
C1342       C  0.71339070  0.76119474  0.82082574    -0.02100
Br1343     Br  0.67097662  0.78731836  0.83479319    -0.00600
Br1344     Br  0.69265876  0.79623169  0.77260633    -0.00700
Br1345     Br  0.79304724  0.68429445  0.84803035    -0.00700
Br1346     Br  0.81396518  0.69202307  0.78579281    -0.00600
C1347       C  0.77355632  0.77999465  0.54861971    -0.01800
C1348       C  0.76190230  0.74931788  0.53399523     0.07900
C1349       C  0.74167547  0.72072792  0.54622505    -0.01900
C1350       C  0.73284015  0.72299129  0.57283792    -0.01900
C1351       C  0.74391966  0.75397540  0.58739266     0.08000
C1352       C  0.76470441  0.78228147  0.57526249    -0.02100
Br1353     Br  0.78071533  0.82462489  0.59519309    -0.00600
Br1354     Br  0.80012061  0.81955419  0.53184274    -0.00700
Br1355     Br  0.70727990  0.68276529  0.58966782    -0.00700
Br1356     Br  0.72594232  0.67821144  0.52629113    -0.00600
C1357       C  0.85866825  0.64287559  0.63953739    -0.01800
C1358       C  0.84713763  0.64460104  0.66599111     0.07900
C1359       C  0.86060787  0.61777650  0.68362971    -0.01900
C1360       C  0.88613990  0.59069844  0.67514667    -0.01900
C1361       C  0.89912704  0.59059543  0.64918671     0.08000
C1362       C  0.88523286  0.61669535  0.63146083    -0.02100
Br1363     Br  0.90451075  0.61831694  0.59638400    -0.00600
Br1364     Br  0.83701304  0.67468599  0.61331859    -0.00700
Br1365     Br  0.90270395  0.55300728  0.69914676    -0.00700
Br1366     Br  0.84569788  0.61838462  0.71974792    -0.00600
C1367       C  0.63758993  0.58551439  0.71946923    -0.01800
C1368       C  0.60079900  0.59560441  0.72606443     0.07900
C1369       C  0.58806815  0.63126899  0.71877882    -0.01900
C1370       C  0.61172125  0.65627358  0.70556267    -0.01900
C1371       C  0.64930840  0.64721713  0.70083553     0.08000
C1372       C  0.66135128  0.61082719  0.70678791    -0.02100
Br1373     Br  0.70987809  0.59411633  0.69569731    -0.00600
Br1374     Br  0.65687635  0.53748909  0.72896101    -0.00700
Br1375     Br  0.59135845  0.70209845  0.69295122    -0.00700
Br1376     Br  0.53768113  0.64635331  0.72616365    -0.00600
C1377       C  0.59688806  0.86192482  0.73391181    -0.01800
C1378       C  0.60463112  0.89999713  0.73290049     0.07900
C1379       C  0.63730755  0.91220446  0.72073693    -0.01900
C1380       C  0.66132131  0.88656387  0.70871634    -0.01900
C1381       C  0.65287644  0.84838211  0.70869986     0.08000
C1382       C  0.62086572  0.83621789  0.72193289    -0.02100
Br1383     Br  0.61101541  0.78427248  0.72550605    -0.00600
Br1384     Br  0.55417211  0.84510075  0.75297026    -0.00700
Br1385     Br  0.70530842  0.90427843  0.69167960    -0.00700
Br1386     Br  0.64854249  0.96432796  0.71985228    -0.00600
C1387       C  0.58923396  0.12268161  0.78824679    -0.01800
C1388       C  0.59866600  0.10017982  0.76674621     0.07900
C1389       C  0.63496808  0.10118520  0.75671058    -0.01900
C1390       C  0.66140648  0.12520826  0.76766303    -0.01900
C1391       C  0.65190481  0.14777436  0.78907463     0.08000
C1392       C  0.61568570  0.14672172  0.79918454    -0.02100
Br1393     Br  0.60230350  0.17882434  0.82768414    -0.00600
Br1394     Br  0.54061511  0.11897394  0.80368729    -0.00700
Br1395     Br  0.71076468  0.12752797  0.75325952    -0.00700
Br1396     Br  0.64839192  0.06949031  0.72802860    -0.00600
C1397       C  0.53793683  0.00361440  0.88936124    -0.01800
C1398       C  0.50974685  0.02532667  0.90083137     0.07900
C1399       C  0.48027097  0.03820859  0.88551884    -0.01900
C1400       C  0.47800859  0.02805083  0.85907084    -0.01900
C1401       C  0.50479025  0.00373848  0.84804123     0.08000
C1402       C  0.53503728  0.99200455  0.86336744    -0.02100
Br1403     Br  0.57098937  0.95715978  0.84984615    -0.00600
Br1404     Br  0.57971108  0.98774771  0.91013111    -0.00700
Br1405     Br  0.43828676  0.04848834  0.83837204    -0.00700
Br1406     Br  0.44175257  0.06765638  0.90142583    -0.00600
C1407       C  0.47023469  0.97955376  0.61248750    -0.01800
C1408       C  0.49996746  0.99190427  0.59687507     0.07900
C1409       C  0.52703652  0.01567251  0.60805329    -0.01900
C1410       C  0.52553911  0.02471605  0.63472783    -0.01900
C1411       C  0.49621596  0.01174381  0.65015204     0.08000
C1412       C  0.46799075  0.99022047  0.63874761    -0.02100
Br1413     Br  0.42613556  0.97481447  0.65956079    -0.00600
Br1414     Br  0.43345905  0.94599915  0.59877126    -0.00700
Br1415     Br  0.56477901  0.05310639  0.65056582    -0.00700
Br1416     Br  0.56561947  0.03787729  0.58720986    -0.00600
C1417       C  0.58515674  0.86646932  0.96131982    -0.01800
C1418       C  0.59817922  0.89952549  0.97295094     0.07900
C1419       C  0.63625546  0.90819111  0.97159162    -0.01900
C1420       C  0.66124773  0.88318314  0.96007269    -0.01900
C1421       C  0.64808496  0.85034502  0.94873957     0.08000
C1422       C  0.60999479  0.84270006  0.94852590    -0.02100
Br1423     Br  0.59201143  0.80014870  0.42969369    -0.00600
Br1424     Br  0.53359911  0.85226712  0.46368204    -0.00700
Br1425     Br  0.71380164  0.89312036  0.96066228    -0.00700
Br1426     Br  0.65439508  0.95493735  0.98403162    -0.00600
C1427       C  0.58444788  0.12573373  0.54070650    -0.01800
C1428       C  0.59861665  0.09427529  0.52757307     0.07900
C1429       C  0.63724677  0.08778544  0.52769815    -0.01900
C1430       C  0.66134776  0.11256965  0.54033131    -0.01900
C1431       C  0.64734790  0.14508194  0.55183511     0.08000
C1432       C  0.60883427  0.15135140  0.55230160    -0.02100
Br1433     Br  0.58969813  0.19493544  0.56938221    -0.00600
Br1434     Br  0.53163828  0.13321160  0.04406601    -0.00700
Br1435     Br  0.71400115  0.10287006  0.54082782    -0.00700
Br1436     Br  0.65788642  0.04672142  0.50870498    -0.00600
C1437       C  0.15593679  0.61688504  0.91410692    -0.01800
C1438       C  0.14525575  0.65415371  0.91768258     0.07900
C1439       C  0.10964218  0.66561452  0.90948508    -0.01900
C1440       C  0.08533237  0.64022380  0.89772559    -0.01900
C1441       C  0.09621720  0.60309445  0.89410522     0.08000
C1442       C  0.13162940  0.59151728  0.90228661    -0.02100
Br1443     Br  0.14645198  0.54039157  0.89836043    -0.00600
Br1444     Br  0.20429058  0.60028549  0.92446116    -0.00700
Br1445     Br  0.03722177  0.65659063  0.88589038    -0.00700
Br1446     Br  0.09323076  0.71589409  0.91522279    -0.00600
C1447       C  0.33851798  0.61356356  0.95687430    -0.01800
C1448       C  0.34445573  0.65200538  0.95844743     0.07900
C1449       C  0.37547358  0.66550790  0.97221411    -0.01900
C1450       C  0.39964690  0.64071535  0.98477671    -0.01900
C1451       C  0.39348338  0.60234438  0.98329416     0.08000
C1452       C  0.36304682  0.58883289  0.96909144    -0.02100
Br1453     Br  0.35649925  0.53631942  0.96463397    -0.00600
Br1454     Br  0.29852387  0.59448133  0.93623612    -0.00700
Br1455     Br  0.44090475  0.65919145  0.50461731    -0.00700
Br1456     Br  0.38468718  0.71800168  0.97454878    -0.00600
C1457       C  0.36127300  0.84686449  0.98069099    -0.01800
C1458       C  0.35143418  0.84634567  0.95408778     0.07900
C1459       C  0.36557780  0.87333399  0.93722799    -0.01900
C1460       C  0.38911334  0.90113738  0.94695072    -0.01900
C1461       C  0.39969710  0.90131475  0.97356371     0.08000
C1462       C  0.38566788  0.87392981  0.99034486    -0.02100
Br1463     Br  0.40092775  0.87223294  0.52630585    -0.00600
Br1464     Br  0.34144553  0.81000602  0.50404570    -0.00700
Br1465     Br  0.40461697  0.94033290  0.92382781    -0.00700
Br1466     Br  0.35124380  0.87300948  0.90106976    -0.00600
C1467       C  0.27696727  0.76667579  0.79456011    -0.01800
C1468       C  0.24737063  0.74629060  0.78357432     0.07900
C1469       C  0.22600693  0.72291743  0.79936152    -0.01900
C1470       C  0.23369623  0.72032102  0.82603420    -0.01900
C1471       C  0.26155052  0.74267531  0.83740323     0.08000
C1472       C  0.28353271  0.76545110  0.82152587    -0.02100
Br1473     Br  0.32102680  0.79670218  0.83673706    -0.00600
Br1474     Br  0.30966048  0.79538932  0.77273533    -0.00700
Br1475     Br  0.20585855  0.68559343  0.84693202    -0.00700
Br1476     Br  0.18458109  0.69624715  0.78478195    -0.00600
C1477       C  0.24682837  0.78552947  0.57686950    -0.01800
C1478       C  0.27205892  0.75953753  0.58728032     0.07900
C1479       C  0.28941940  0.73380643  0.57082669    -0.01900
C1480       C  0.27975388  0.73248521  0.54431985    -0.01900
C1481       C  0.25151984  0.75597435  0.53446180     0.08000
C1482       C  0.23589983  0.78323895  0.55074425    -0.02100
Br1483     Br  0.19762001  0.81599728  0.53802718    -0.00600
Br1484     Br  0.22618368  0.82384466  0.59890856    -0.00700
Br1485     Br  0.30669485  0.69937953  0.52165499    -0.00700
Br1486     Br  0.32470307  0.69905705  0.58492045    -0.00600
C1487       C  0.09319982  0.62600343  0.66008453    -0.01800
C1488       C  0.10402063  0.59422452  0.64547942     0.07900
C1489       C  0.14233556  0.58860411  0.64039243    -0.01900
C1490       C  0.16886616  0.61397120  0.64987915    -0.01900
C1491       C  0.15782181  0.64421635  0.66533991     0.08000
C1492       C  0.12005804  0.65007937  0.67043296    -0.02100
Br1493     Br  0.10533909  0.69165082  0.69180783    -0.00600
Br1494     Br  0.04158926  0.63918591  0.66485934    -0.00700
Br1495     Br  0.22056599  0.60837551  0.64091664    -0.00700
Br1496     Br  0.15967952  0.54601459  0.62117061    -0.00600
C1497       C  0.37039653  0.65862501  0.73253090    -0.01800
C1498       C  0.35815808  0.65549487  0.70653173     0.07900
C1499       C  0.37234745  0.62724548  0.69062133    -0.01900
C1500       C  0.39854276  0.60206933  0.70062812    -0.01900
C1501       C  0.40901336  0.60350378  0.72724025     0.08000
C1502       C  0.39561769  0.63270212  0.74292429    -0.02100
Br1503     Br  0.41025747  0.63664963  0.77891687    -0.00600
Br1504     Br  0.35178465  0.69825275  0.75414571    -0.00700
Br1505     Br  0.42162533  0.56721696  0.67704824    -0.00700
Br1506     Br  0.35391937  0.62164203  0.65562817    -0.00600
C1507       C  0.40806408  0.86165746  0.73123813    -0.01800
C1508       C  0.40008474  0.89982189  0.73168410     0.07900
C1509       C  0.36678302  0.91276550  0.72065662    -0.01900
C1510       C  0.34147373  0.88771450  0.70947296    -0.01900
C1511       C  0.34938722  0.84941634  0.70901035     0.08000
C1512       C  0.38294334  0.83652541  0.71998514    -0.02100
Br1513     Br  0.39439529  0.78429126  0.72071449    -0.00600
Br1514     Br  0.45336934  0.84370595  0.74657607    -0.00700
Br1515     Br  0.29709863  0.90642768  0.69323367    -0.00700
Br1516     Br  0.35707567  0.96521395  0.71917443    -0.00600
C1517       C  0.15429089  0.36727515  0.85928943    -0.01800
C1518       C  0.14855508  0.35098588  0.83458311     0.07900
C1519       C  0.11691901  0.36058410  0.82006084    -0.01900
C1520       C  0.09121013  0.38625150  0.83021559    -0.01900
C1521       C  0.09649784  0.40158489  0.85522020     0.08000
C1522       C  0.12817442  0.39228778  0.86963211    -0.02100
Br1523     Br  0.13581193  0.41440556  0.90336030    -0.00600
Br1524     Br  0.19879359  0.35648088  0.87863532    -0.00700
Br1525     Br  0.04887886  0.40097696  0.80971802    -0.00700
Br1526     Br  0.10796174  0.33735311  0.78687501    -0.00600
C1527       C  0.35594993  0.37544398  0.80874620    -0.01800
C1528       C  0.34209852  0.34909891  0.79123123     0.07900
C1529       C  0.35283081  0.35045188  0.76479262    -0.01900
C1530       C  0.37817125  0.37747255  0.75609029    -0.01900
C1531       C  0.39266010  0.40359476  0.77375372     0.08000
C1532       C  0.38094998  0.40263727  0.80007337    -0.02100
Br1533     Br  0.39775761  0.43957230  0.82436443    -0.00600
Br1534     Br  0.33938858  0.37500446  0.84445712    -0.00700
Br1535     Br  0.39448276  0.37719983  0.72034451    -0.00700
Br1536     Br  0.33358988  0.31432724  0.74061634    -0.00600
C1537       C  0.36433982  0.08608761  0.77954948    -0.01800
C1538       C  0.39953990  0.09776033  0.77028934     0.07900
C1539       C  0.40831218  0.13599274  0.77182852    -0.01900
C1540       C  0.38215217  0.16177016  0.78165160    -0.01900
C1541       C  0.34760396  0.14971588  0.79144749     0.08000
C1542       C  0.33944110  0.11160196  0.79087973    -0.02100
Br1543     Br  0.29472137  0.09363967  0.80713120    -0.00600
Br1544     Br  0.34814756  0.03537675  0.77572730    -0.00700
Br1545     Br  0.39333465  0.21399229  0.78043310    -0.00700
Br1546     Br  0.45667003  0.15391030  0.76180723    -0.00600
C1547       C  0.24836222  0.21316234  0.92301558    -0.01800
C1548       C  0.26361124  0.24399888  0.91011721     0.07900
C1549       C  0.27003303  0.27694038  0.92394164    -0.01900
C1550       C  0.26058690  0.27922856  0.95043544    -0.01900
C1551       C  0.24438754  0.24869034  0.96316713     0.08000
C1552       C  0.23831611  0.21562005  0.94939229    -0.02100
Br1553     Br  0.21714880  0.17342391  0.96680360    -0.00600
Br1554     Br  0.24194292  0.16726005  0.90437800    -0.00700
Br1555     Br  0.26911642  0.32459011  0.96935361    -0.00700
Br1556     Br  0.29040672  0.31933409  0.90631625    -0.00600
C1557       C  0.27408558  0.22822862  0.70334275    -0.01800
C1558       C  0.24518241  0.25062614  0.71353327     0.07900
C1559       C  0.22923875  0.27819278  0.69774289    -0.01900
C1560       C  0.24146759  0.28287502  0.67200643    -0.01900
C1561       C  0.26683596  0.25730525  0.66087601     0.08000
C1562       C  0.28406900  0.23089759  0.67695336    -0.02100
Br1563     Br  0.32361050  0.20033035  0.66330077    -0.00600
Br1564     Br  0.30256175  0.19576169  0.72559035    -0.00700
Br1565     Br  0.22344242  0.32532635  0.65294645    -0.00700
Br1566     Br  0.18905534  0.30860827  0.71074674    -0.00600
C1567       C  0.13387693  0.36685317  0.56591875    -0.01800
C1568       C  0.14572785  0.33758852  0.58176788     0.07900
C1569       C  0.13057686  0.33359070  0.60690401    -0.01900
C1570       C  0.10658715  0.36082843  0.61719101    -0.01900
C1571       C  0.09599449  0.39144183  0.60179305     0.08000
C1572       C  0.10871404  0.39338124  0.57565095    -0.02100
Br1573     Br  0.09081076  0.43125671  0.55230050    -0.00600
Br1574     Br  0.15257892  0.37050953  0.53084028    -0.00700
Br1575     Br  0.09058632  0.35698341  0.65293251    -0.00700
Br1576     Br  0.14147331  0.28967331  0.62674835    -0.00600
C1577       C  0.33552606  0.38608456  0.53147358    -0.01800
C1578       C  0.34895266  0.35349791  0.54312834     0.07900
C1579       C  0.38744922  0.34665694  0.54395272    -0.01900
C1580       C  0.41239654  0.37205661  0.53289709    -0.01900
C1581       C  0.39893909  0.40434169  0.52069461     0.08000
C1582       C  0.36043094  0.41135556  0.52027824    -0.02100
Br1583     Br  0.34141211  0.45505983  0.50355550    -0.00600
Br1584     Br  0.28284244  0.39537217  0.52959931    -0.00700
Br1585     Br  0.46508167  0.36359113  0.53614048    -0.00700
Br1586     Br  0.40610654  0.30304061  0.56126319    -0.00600
C1587       C  0.39972726  0.10110756  0.54920972    -0.01800
C1588       C  0.40232661  0.09470013  0.52212145     0.07900
C1589       C  0.37810483  0.11280455  0.50504805    -0.01900
C1590       C  0.35147802  0.13756899  0.51490604    -0.01900
C1591       C  0.34967186  0.14525399  0.54196944     0.08000
C1592       C  0.37364218  0.12654966  0.55911332    -0.02100
Br1593     Br  0.37236318  0.13711831  0.59591208    -0.00600
Br1594     Br  0.43306715  0.07606828  0.57277584    -0.00700
Br1595     Br  0.31636438  0.15943019  0.49104355    -0.00700
Br1596     Br  0.38081064  0.10269217  0.96820491    -0.00600
C1597       C  0.87116112  0.13246524  0.81484089    -0.01800
C1598       C  0.84949007  0.15328307  0.83228568     0.07900
C1599       C  0.85359753  0.14798130  0.85942071    -0.01900
C1600       C  0.87834540  0.12117743  0.86898014    -0.01900
C1601       C  0.89932572  0.09974062  0.85152959     0.08000
C1602       C  0.89608011  0.10574519  0.82443123    -0.02100
Br1603     Br  0.92639034  0.07792020  0.80031408    -0.00600
Br1604     Br  0.86543782  0.13933137  0.77786273    -0.00700
Br1605     Br  0.88212664  0.11244922  0.90592728    -0.00700
Br1606     Br  0.82591916  0.17802952  0.88379928    -0.00600
C1607       C  0.86283301  0.86719616  0.92992099    -0.01800
C1608       C  0.84377262  0.84547058  0.91166610     0.07900
C1609       C  0.85042602  0.85076453  0.88476959    -0.01900
C1610       C  0.87618647  0.87747752  0.87624768    -0.01900
C1611       C  0.89548217  0.89929294  0.89453320     0.08000
C1612       C  0.88847412  0.89392964  0.92150636    -0.02100
Br1613     Br  0.91236878  0.92405237  0.94764587    -0.00600
Br1614     Br  0.85215008  0.86187992  0.96659686    -0.00700
Br1615     Br  0.88640752  0.88230185  0.83953147    -0.00700
Br1616     Br  0.82549489  0.82017666  0.85935459    -0.00600
C1617       C  0.12542025  0.89118749  0.88059042    -0.01800
C1618       C  0.10221938  0.90965995  0.89855495     0.07900
C1619       C  0.10828791  0.90464303  0.92565077    -0.01900
C1620       C  0.13487108  0.87903405  0.93448194    -0.01900
C1621       C  0.15666176  0.85941023  0.91642500     0.08000
C1622       C  0.15323525  0.86714477  0.88956598    -0.02100
Br1623     Br  0.18769714  0.84584349  0.86477825    -0.00600
Br1624     Br  0.11800464  0.89606880  0.84350171    -0.00700
Br1625     Br  0.13990920  0.86966660  0.97131813    -0.00700
Br1626     Br  0.08131057  0.93330025  0.95128992    -0.00600
C1627       C  0.13208830  0.09076012  0.85314544    -0.01800
C1628       C  0.09377174  0.09792653  0.85107060     0.07900
C1629       C  0.08140705  0.12910043  0.83700892    -0.01900
C1630       C  0.10729133  0.15374778  0.82608722    -0.01900
C1631       C  0.14557633  0.14680180  0.82849973     0.08000
C1632       C  0.15785219  0.11508924  0.84185974    -0.02100
Br1633     Br  0.21015024  0.10606727  0.84601995    -0.00600
Br1634     Br  0.14944328  0.04829459  0.87238419    -0.00700
Br1635     Br  0.09045665  0.19689783  0.80747535    -0.00700
Br1636     Br  0.02908449  0.13686000  0.83125310    -0.00600
C1637       C  0.96621507  0.99975232  0.73373201    -0.01800
C1638       C  0.99468462  0.02200048  0.72333357     0.07900
C1639       C  0.02301186  0.03493812  0.73957967    -0.01900
C1640       C  0.02391229  0.02427566  0.76593888    -0.01900
C1641       C  0.99690722  0.99942938  0.77598969     0.08000
C1642       C  0.96770948  0.98776447  0.75968470    -0.02100
Br1643     Br  0.93103426  0.95297933  0.77188789    -0.00600
Br1644     Br  0.92566544  0.98429808  0.71166284    -0.00700
Br1645     Br  0.06192787  0.04525912  0.78783342    -0.00700
Br1646     Br  0.06164585  0.06557288  0.72517633    -0.00600
C1647       C  0.02654978  0.02386998  0.98579381    -0.01800
C1648       C  0.99262419  0.02336067  0.97261469     0.07900
C1649       C  0.95992363  0.01521597  0.98614350    -0.01900
C1650       C  0.96125993  0.00374694  0.51228671    -0.01900
C1651       C  0.99568090  0.00288124  0.52587553     0.08000
C1652       C  0.02822091  0.01488138  0.51241896    -0.02100
Br1653     Br  0.07573217  0.02086558  0.52937994    -0.00600
Br1654     Br  0.07107382  0.03581462  0.96661548    -0.00700
Br1655     Br  0.91525783  0.98736584  0.52784285    -0.00700
Br1656     Br  0.91315069  0.02013712  0.96821894    -0.00600
C1657       C  0.84095730  0.12772678  0.60823263    -0.01800
C1658       C  0.84768857  0.15143620  0.58640577     0.07900
C1659       C  0.88330284  0.14979786  0.57440085    -0.01900
C1660       C  0.91102160  0.12580700  0.58413236    -0.01900
C1661       C  0.90404149  0.10335556  0.60591849     0.08000
C1662       C  0.86914344  0.10436559  0.61782462    -0.02100
Br1663     Br  0.86043491  0.07317498  0.64777637    -0.00600
Br1664     Br  0.79366184  0.12517401  0.62606672    -0.00700
Br1665     Br  0.95830737  0.12178213  0.56663727    -0.00700
Br1666     Br  0.89489627  0.17807583  0.54352838    -0.00600
C1667       C  0.88802197  0.84708974  0.67256732    -0.01800
C1668       C  0.84986706  0.85415473  0.67039491     0.07900
C1669       C  0.83771754  0.88647844  0.65767592    -0.01900
C1670       C  0.86355851  0.91193904  0.64753476    -0.01900
C1671       C  0.90196717  0.90401350  0.64848309     0.08000
C1672       C  0.91393199  0.87109329  0.66105062    -0.02100
Br1673     Br  0.96566219  0.85688319  0.66163123    -0.00600
Br1674     Br  0.90463766  0.80437421  0.69188341    -0.00700
Br1675     Br  0.84575777  0.95843371  0.63386654    -0.00700
Br1676     Br  0.78554845  0.89493618  0.65280019    -0.00600
C1677       C  0.09907320  0.86564936  0.63631818    -0.01800
C1678       C  0.10343662  0.90291488  0.64320804     0.07900
C1679       C  0.13082609  0.91297379  0.66130469    -0.01900
C1680       C  0.15499909  0.88610473  0.67178411    -0.01900
C1681       C  0.15154572  0.84831521  0.66447842     0.08000
C1682       C  0.12239422  0.83834268  0.64708662    -0.02100
Br1683     Br  0.11120162  0.78720619  0.63905165    -0.00600
Br1684     Br  0.05975467  0.85214142  0.61266151    -0.00700
Br1685     Br  0.19225082  0.90253014  0.69611209    -0.00700
Br1686     Br  0.13412257  0.96400669  0.67231587    -0.00600
C1687       C  0.11991712  0.16005740  0.58818056    -0.01800
C1688       C  0.15628753  0.14823776  0.58221486     0.07900
C1689       C  0.16636294  0.11105785  0.58677129    -0.01900
C1690       C  0.14073289  0.08619497  0.59774890    -0.01900
C1691       C  0.10406100  0.09775562  0.60334858     0.08000
C1692       C  0.09382071  0.13490967  0.59833803    -0.02100
Br1693     Br  0.04362926  0.15177412  0.60415699    -0.00600
Br1694     Br  0.10589517  0.21127789  0.58369433    -0.00700
Br1695     Br  0.15707330  0.03671889  0.60631302    -0.00700
Br1696     Br  0.21502942  0.09345578  0.57688515    -0.00600
loop_ 
_geom_bond_atom_site_label_1 
_geom_bond_atom_site_label_2 
_geom_bond_distance 
_geom_bond_site_symmetry_2 
_ccdc_geom_bond_type 
Zn1           O5   1.913   1_565  S
Zn1           O6   1.963   1_455  S
Zn1          O10   1.918       .  S
Zn1          O17   1.973       .  S
Zn2           O5   1.954   1_665  S
Zn2           O7   2.001   1_565  S
Zn2           O9   2.074       .  S
Zn2          O13   2.006       .  S
Zn3           O5   1.979       .  S
Zn3           O8   2.080   1_455  S
Zn3          O11   2.055   1_455  S
Zn3          O14   2.047       .  S
Zn4           O5   1.959   1_565  S
Zn4          O12   2.006   1_565  S
Zn4          O15   2.021       .  S
Zn4          O16   2.067       .  S
O6           C18   1.265       .  A
O7           C19   1.272       .  A
O8           C20   1.280       .  A
O9           C18   1.280       .  A
O10          C20   1.262   1_465  A
O11          C19   1.277       .  A
O12          C21   1.273       .  A
O13          C22   1.273       .  A
O14          C21   1.278       .  A
O15          C22   1.271   1_455  A
O16          C23   1.278       .  A
O17          C23   1.266       .  A
C18         C823   1.494       .  S
C19         C813   1.481       .  S
C20         C790   1.471       .  S
C21         C843   1.492       .  S
C22         C803   1.504   1_565  S
C23         C830   1.476       .  S
Zn24         O28   1.921   1_565  S
Zn24         O29   1.971       .  S
Zn24         O33   1.959       .  S
Zn24         O40   1.975   1_655  S
Zn25         O28   1.951   1_565  S
Zn25         O30   1.993   1_565  S
Zn25         O32   2.074       .  S
Zn25         O36   2.009       .  S
Zn26         O28   1.977       .  S
Zn26         O31   2.060       .  S
Zn26         O34   2.031       .  S
Zn26         O37   2.045   1_655  S
Zn27         O28   1.955   1_465  S
Zn27         O35   1.979   1_565  S
Zn27         O38   2.013       .  S
Zn27         O39   2.031       .  S
O29          C41   1.266       .  A
O30          C42   1.270       .  A
O31          C43   1.279       .  A
O32          C41   1.280       .  A
O33          C43   1.267   1_565  A
O34          C42   1.275       .  A
O35          C44   1.267       .  A
O36          C45   1.274       .  A
O37          C44   1.276       .  A
O38          C45   1.274   1_455  A
O39          C46   1.274       .  A
O40          C46   1.266       .  A
C41         C763   1.493       .  S
C42         C753   1.475       .  S
C43         C800   1.468       .  S
C44         C780   1.478       .  S
C45         C793   1.488       .  S
C46         C770   1.486       .  S
Zn47         O51   1.955       .  S
Zn47         O52   2.064       .  S
Zn47         O56   1.999       .  S
Zn47         O63   2.019       .  S
Zn48         O51   1.920       .  S
Zn48         O55   1.954       .  S
Zn48         O59   1.966       .  S
Zn48        O901   1.938       .  S
Zn49         O51   1.981       .  S
Zn49         O54   2.046       .  S
Zn49         O57   2.071       .  S
Zn49         O60   2.055       .  S
Zn50         O51   1.949       .  S
Zn50         O58   2.009       .  S
Zn50         O61   2.043       .  S
Zn50         O62   1.990       .  S
O52          C64   1.278       .  A
O53        Zn896   1.938       .  S
O53          C65   1.263       .  A
O54          C66   1.277       .  A
O55          C64   1.264       .  A
O56          C66   1.271       .  A
O57         C913   1.280   1_554  A
O58          C67   1.272       .  A
O59          C68   1.265       .  A
O60          C67   1.278       .  A
O61          C68   1.275       .  A
O62          C69   1.270       .  A
O63          C69   1.276       .  A
C64         C743   1.481       .  S
C65         O905   1.280       .  A
C65         C703   1.469       .  S
C66         C840   1.487       .  S
C67         C720   1.481       .  S
C68         C730   1.475       .  S
C69         C713   1.483       .  S
Zn70         O74   1.928       .  S
Zn70         O75   1.939       .  S
Zn70         O79   1.979       .  S
Zn70         O86   1.980       .  S
Zn71         O74   1.985       .  S
Zn71         O76   2.063       .  S
Zn71         O78   2.071       .  S
Zn71         O82   2.059       .  S
Zn72         O74   1.963       .  S
Zn72         O77   2.058       .  S
Zn72         O80   2.017       .  S
Zn72         O83   2.010       .  S
Zn73         O74   1.959       .  S
Zn73         O81   1.989       .  S
Zn73         O84   1.992       .  S
Zn73         O85   2.061       .  S
O75          C87   1.265       .  A
O76          C88   1.278       .  A
O77          C89   1.277       .  A
O78          C87   1.281       .  A
O79          C89   1.267       .  A
O80          C88   1.273       .  A
O81          C90   1.272       .  A
O82          C91   1.278       .  A
O83          C90   1.274       .  A
O84          C91   1.269       .  A
O85          C92   1.277       .  A
O86          C92   1.267       .  A
C87         C700   1.468       .  S
C88         C693   1.497       .  S
C89         C783   1.476       .  S
C90         C710   1.479       .  S
C91         C680   1.480       .  S
C92         C670   1.480       .  S
Zn93         O97   1.918       .  S
Zn93         O98   1.986       .  S
Zn93        O102   1.922       .  S
Zn93        O109   1.980       .  S
Zn94         O97   1.957       .  S
Zn94         O99   1.996       .  S
Zn94        O101   2.061       .  S
Zn94        O105   2.001       .  S
Zn95         O97   1.983       .  S
Zn95        O100   2.070       .  S
Zn95        O103   2.058       .  S
Zn95        O106   2.040       .  S
Zn96         O97   1.968       .  S
Zn96        O104   2.009       .  S
Zn96        O107   2.001       .  S
Zn96        O108   2.064       .  S
O98         C110   1.268       .  A
O99         C111   1.270       .  A
O100        C112   1.279       .  A
O101        C110   1.277       .  A
O102        C112   1.263       .  A
O103        C111   1.278       .  A
O104        C113   1.272       .  A
O105        C114   1.273       .  A
O106        C113   1.276       .  A
O107        C114   1.273       .  A
O108        C115   1.276       .  A
O109        C115   1.266       .  A
C110        C643   1.478       .  S
C111        C650   1.479       .  S
C112        C630   1.469       .  S
C113        C663   1.487       .  S
C114        C620   1.473       .  S
C115        C833   1.505       .  S
Zn116       O120   1.912       .  S
Zn116       O121   1.969       .  S
Zn116       O125   1.929       .  S
Zn116       O132   1.963       .  S
Zn117       O120   1.962       .  S
Zn117       O122   2.002       .  S
Zn117       O124   2.062       .  S
Zn117       O128   2.017       .  S
Zn118       O120   1.980       .  S
Zn118       O123   2.068       .  S
Zn118       O126   2.036       .  S
Zn118       O129   2.062       .  S
Zn119       O120   1.947       .  S
Zn119       O127   1.965       .  S
Zn119       O130   1.987       .  S
Zn119       O131   2.038       .  S
O121        C133   1.266       .  A
O122        C134   1.272       .  A
O123        C135   1.280       .  A
O124        C133   1.278       .  A
O125        C135   1.263       .  A
O126        C134   1.276       .  A
O127        C136   1.266       .  A
O128        C985   1.275       .  A
O129        C136   1.278       .  A
O130        C985   1.271       .  A
O131        C138   1.274       .  A
O132        C138   1.266       .  A
C133        C590   1.486       .  S
C134        C600   1.480       .  S
C135        C623   1.474       .  S
C136        C610   1.475       .  S
C137        O976   1.275   1_554  A
C137        O978   1.271   1_554  A
C137        C633   1.478       .  S
C138        C773   1.478       .  S
Zn139       O143   1.906       .  S
Zn139       O144   1.957       .  S
Zn139       O148   1.940       .  S
Zn139       O155   1.914       .  S
Zn140       O991   1.950   1_554  S
Zn140       O145   2.004       .  S
Zn140       O147   2.068       .  S
Zn140       O151   1.976   1_565  S
Zn141       O991   1.966   1_554  S
Zn141       O146   2.056       .  S
Zn141       O149   2.016       .  S
Zn141       O152   2.012   1_565  S
Zn142       O143   1.978   1_545  S
Zn142       O150   2.047       .  S
Zn142       O153   2.046       .  S
Zn142       O154   2.085       .  S
O143       Zn988   1.950       .  S
O143       Zn989   1.966       .  S
O144        C156   1.264       .  A
O145        C157   1.273       .  A
O146       C1006   1.277   1_554  A
O147       C1004   1.279   1_554  A
O148        C158   1.262       .  A
O149        C157   1.274       .  A
O150       C1007   1.278       .  A
O151        C160   1.268       .  A
O152        C159   1.273       .  A
O153       C1008   1.278       .  A
O154        C161   1.280       .  A
O155        C161   1.261   1_565  A
C156        O995   1.279       .  A
C156        C613   1.485       .  S
C157        C560   1.489       .  S
C158        O994   1.277       .  A
C158        C570   1.478       .  S
C159        O998   1.278       .  A
C159        C580   1.489       .  S
C160       O1001   1.278   1_554  A
C160        C740   1.472       .  S
C161        C550   1.470       .  S
Zn162       O166   1.927       .  S
Zn162       O167   1.979       .  S
Zn162       O171   1.942       .  S
Zn162       O178   1.979       .  S
Zn163       O166   1.953       .  S
Zn163       O168   1.983   1_565  S
Zn163       O170   2.057       .  S
Zn163       O174   1.997       .  S
Zn164       O166   1.988   1_545  S
Zn164       O169   2.081       .  S
Zn164       O172   2.066       .  S
Zn164       O175   2.071       .  S
Zn165       O166   1.964       .  S
Zn165       O173   2.004   1_565  S
Zn165       O176   2.020       .  S
Zn165       O177   2.065       .  S
O167        C179   1.267       .  A
O168        C180   1.268       .  A
O169        C181   1.282       .  A
O170        C179   1.276       .  A
O171        C181   1.265   1_565  A
O172        C180   1.279       .  A
O173        C182   1.271       .  A
O174        C183   1.272       .  A
O175        C182   1.279       .  A
O176        C183   1.275       .  A
O177        C184   1.278       .  A
O178        C184   1.267       .  A
C179        C530   1.477       .  S
C180        C540   1.477       .  S
C181        C563   1.474       .  S
C182        C690   1.507       .  S
C183        C553   1.485   1_565  S
C184        C660   1.481       .  S
Zn185       O189   1.963       .  S
Zn185       O190   2.059       .  S
Zn185       O194   2.001       .  S
Zn185       O201   1.976       .  S
Zn186       O189   1.931       .  S
Zn186       O191   1.981       .  S
Zn186       O193   1.984       .  S
Zn186       O197   1.935       .  S
Zn187       O189   1.951       .  S
Zn187       O192   1.993       .  S
Zn187       O195   2.050       .  S
Zn187       O198   1.993       .  S
Zn188       O189   1.992       .  S
Zn188       O196   2.105       .  S
Zn188       O199   2.091       .  S
Zn188       O200   2.087       .  S
O190        C202   1.275       .  A
O191        C203   1.267       .  A
O192        C204   1.273       .  A
O193        C202   1.266       .  A
O194        C204   1.274       .  A
O195        C203   1.275       .  A
O196        C205   1.282       .  A
O197        C206   1.264       .  A
O198        C205   1.269       .  A
O199        C206   1.285       .  A
O200        C207   1.283       .  A
O201        C207   1.268       .  A
C202        C820   1.481       .  S
C203        C510   1.493       .  S
C204        C490   1.470       .  S
C205        C523   1.511       .  S
C206        C503   1.474       .  S
C207        C533   1.487       .  S
Zn208       O212   1.963       .  S
Zn208       O213   2.002       .  S
Zn208       O217   2.037       .  S
Zn208       O224   1.996       .  S
Zn209       O212   1.951       .  S
Zn209       O214   2.027       .  S
Zn209       O216   1.984       .  S
Zn209       O220   1.983       .  S
Zn210       O212   1.911       .  S
Zn210       O215   1.951       .  S
Zn210       O218   1.963       .  S
Zn210      O1069   1.926       .  S
Zn211       O212   1.976       .  S
Zn211       O219   2.089       .  S
Zn211       O222   2.056       .  S
Zn211       O223   2.050       .  S
O213        C225   1.272       .  A
O214        C226   1.272       .  A
O215        C227   1.264       .  A
O216        C225   1.271       .  A
O217        C227   1.273       .  A
O218        C226   1.265       .  A
O219       C1076   1.282       .  A
O220        C229   1.269       .  A
O221      Zn1058   1.926       .  S
O221        C228   1.262   1_556  A
O222        C229   1.279       .  A
O223        C230   1.278       .  A
O224        C230   1.271       .  A
C225        C493   1.469       .  S
C226        C573   1.463       .  S
C227        C480   1.478       .  S
C228       O1067   1.282   1_554  A
C228        C500   1.472       .  S
C229        C760   1.483       .  S
C230        C470   1.477       .  S
Zn231       O235   1.984       .  S
Zn231       O236   2.061       .  S
Zn231       O240   2.065       .  S
Zn231       O247   2.069       .  S
Zn232       O235   1.956       .  S
Zn232       O237   2.009       .  S
Zn232       O239   2.000       .  S
Zn232       O243   2.054       .  S
Zn233       O235   1.954       .  S
Zn233       O238   1.995       .  S
Zn233       O241   1.994       .  S
Zn233       O244   2.070       .  S
Zn234       O235   1.928       .  S
Zn234       O242   1.986       .  S
Zn234       O245   1.987       .  S
Zn234      O1094   1.946       .  S
O236        C248   1.277       .  A
O237        C249   1.275       .  A
O238        C250   1.270       .  A
O239        C248   1.267       .  A
O240        C250   1.278       .  A
O241        C249   1.273       .  A
O242        C251   1.268       .  A
O243        C252   1.276       .  A
O244        C251   1.279       .  A
O245        C252   1.268       .  A
O246      Zn1082   1.946       .  S
O246        C253   1.266       .  A
O247       C1101   1.282   1_554  A
C248        C810   1.514       .  S
C249        C440   1.476       .  S
C250        C450   1.502       .  S
C251        C460   1.491       .  S
C252        C583   1.478       .  S
C253       O1095   1.282       .  A
C253        C430   1.476       .  S
Zn254       O258   1.961       .  S
Zn254       O259   2.012       .  S
Zn254       O263   2.009       .  S
Zn254       O270   2.059       .  S
Zn255       O258   1.987       .  S
Zn255       O260   2.053       .  S
Zn255       O262   2.047       .  S
Zn255       O266   2.072       .  S
Zn256       O258   1.953       .  S
Zn256       O261   2.004       .  S
Zn256       O264   1.980       .  S
Zn256       O267   2.064       .  S
Zn257       O258   1.914       .  S
Zn257       O265   1.973       .  S
Zn257       O268   1.919       .  S
Zn257       O269   1.960       .  S
O259        C271   1.272       .  A
O260        C272   1.279       .  A
O261        C273   1.273       .  A
O262        C271   1.276       .  A
O263        C273   1.274       .  A
O264        C272   1.270       .  A
O265        C274   1.265       .  A
O266        C275   1.279       .  A
O267        C274   1.277       .  A
O268        C275   1.262       .  A
O269        C276   1.266       .  A
O270        C276   1.278       .  A
C271        C413   1.499       .  S
C272        C750   1.477       .  S
C273        C433   1.482       .  S
C274        C543   1.476       .  S
C275        C443   1.476       .  S
C276        C420   1.479       .  S
Zn277      O1129   1.956       .  S
Zn277       O282   1.987       .  S
Zn277       O286   1.999       .  S
Zn277       O293   2.037       .  S
Zn278       O281   1.983       .  S
Zn278       O283   2.055       .  S
Zn278       O285   2.068       .  S
Zn278       O289   2.091       .  S
Zn279      O1129   1.957       .  S
Zn279       O284   2.008       .  S
Zn279       O287   1.979       .  S
Zn279       O290   2.051       .  S
Zn280       O281   1.918       .  S
Zn280       O288   1.968       .  S
Zn280       O291   1.928       .  S
Zn280       O292   1.944       .  S
O281      Zn1125   1.956       .  S
O281      Zn1127   1.957       .  S
O282        C294   1.269       .  A
O283       C1143   1.279       .  A
O284        C296   1.273       .  A
O285       C1142   1.279       .  A
O286        C296   1.273       .  A
O287        C295   1.269       .  A
O288        C297   1.265       .  A
O289        C298   1.282       .  A
O290       C1145   1.275   1_554  A
O291        C298   1.261       .  A
O292        C299   1.264       .  A
O293       C1147   1.274   1_554  A
C294       O1133   1.279   1_554  A
C294        C463   1.487       .  S
C295       O1131   1.279   1_554  A
C295        C733   1.479       .  S
C296        C400   1.473       .  S
C297       O1138   1.275       .  A
C297        C603   1.474       .  S
C298        C390   1.470       .  S
C299       O1141   1.274       .  A
C299        C483   1.467       .  S
Zn300       O304   1.928       .  S
Zn300       O305   1.986       .  S
Zn300       O309   1.936       .  S
Zn300       O316   1.961       .  S
Zn301       O304   1.963       .  S
Zn301       O306   1.998       .  S
Zn301       O308   2.072       .  S
Zn301       O312   2.004       .  S
Zn302       O304   1.987       .  S
Zn302       O307   2.087       .  S
Zn302       O310   2.057       .  S
Zn302       O313   2.069       .  S
Zn303       O304   1.962       .  S
Zn303       O311   2.021       .  S
Zn303       O314   2.004       .  S
Zn303       O315   2.050       .  S
O305        C317   1.267       .  A
O306        C318   1.272       .  A
O307        C319   1.282       .  A
O308        C317   1.278       .  A
O309        C319   1.264       .  A
O310        C318   1.279       .  A
O311        C320   1.272       .  A
O312        C321   1.273       .  A
O313        C320   1.278       .  A
O314        C321   1.273       .  A
O315        C322   1.278       .  A
O316        C322   1.265       .  A
C317        C683   1.490       .  S
C318        C653   1.491       .  S
C319        C393   1.469       .  S
C320        C520   1.507       .  S
C321        C403   1.472       .  S
C322        C423   1.473       .  S
Zn323       O327   1.919       .  S
Zn323       O328   1.978       .  S
Zn323       O332   1.917       .  S
Zn323       O339   1.986   1_455  S
Zn324       O327   1.958       .  S
Zn324       O329   2.011       .  S
Zn324       O331   2.073       .  S
Zn324       O335   2.004       .  S
Zn325       O327   1.984       .  S
Zn325       O330   2.078       .  S
Zn325       O333   2.052       .  S
Zn325       O336   2.065   1_455  S
Zn326       O327   1.955   1_655  S
Zn326       O334   2.002       .  S
Zn326       O337   2.009       .  S
Zn326       O338   2.046       .  S
O328        C340   1.266       .  A
O329        C341   1.273       .  A
O330        C342   1.281       .  A
O331        C340   1.278       .  A
O332        C342   1.262       .  A
O333        C341   1.278       .  A
O334        C343   1.271       .  A
O335        C344   1.273       .  A
O336        C343   1.279       .  A
O337        C344   1.273   1_655  A
O338        C345   1.276       .  A
O339        C345   1.268       .  A
C340        C640   1.502       .  S
C341        C723   1.494       .  S
C342        C370   1.471       .  S
C343        C453   1.497       .  S
C344        C383   1.482       .  S
C345        C513   1.482       .  S
Zn346       O350   1.920       .  S
Zn346       O351   1.937       .  S
Zn346       O355   1.969       .  S
Zn346       O362   1.969   1_655  S
Zn347       O350   1.978       .  S
Zn347       O352   2.047       .  S
Zn347       O354   2.069   1_655  S
Zn347       O358   2.048   1_655  S
Zn348       O350   1.959       .  S
Zn348       O353   2.065       .  S
Zn348       O356   1.997       .  S
Zn348       O359   2.015       .  S
Zn349       O350   1.951   1_455  S
Zn349       O357   1.988       .  S
Zn349       O360   1.989       .  S
Zn349       O361   2.046       .  S
O351        C363   1.264   1_655  A
O352        C364   1.277       .  A
O353        C365   1.278       .  A
O354        C363   1.280       .  A
O355        C365   1.266       .  A
O356        C364   1.271       .  A
O357        C366   1.271       .  A
O358        C367   1.276       .  A
O359        C366   1.274   1_655  A
O360        C367   1.269       .  A
O361        C368   1.276       .  A
O362        C368   1.266       .  A
C363        C380   1.471       .  S
C364        C410   1.489       .  S
C365        C473   1.473       .  S
C366        C373   1.481       .  S
C367        C673   1.474       .  S
C368        C593   1.476       .  S
C369        C370   1.404   1_655  A
C369        C374   1.408       .  A
C369       Br376   1.930       .  S
C370        C371   1.413       .  A
C371        C372   1.404       .  A
C371       Br378   1.936       .  S
C372        C373   1.412       .  A
C372       Br377   1.935       .  S
C373        C374   1.421   1_455  A
C374       Br375   1.933       .  S
C379        C380   1.405   1_655  A
C379       C1232   1.408       .  A
C379       Br386   1.932       .  S
C380        C381   1.412       .  A
C381       C1230   1.405       .  A
C381       Br388   1.935       .  S
C382        C383   1.412       .  A
C382       C1229   1.405   1_554  A
C382       Br387   1.934       .  S
C383        C384   1.421   1_455  A
C384       C1227   1.408   1_554  A
C384       Br385   1.935       .  S
C389        C390   1.410       .  A
C389        C394   1.407       .  A
C389       Br396   1.929       .  S
C390        C391   1.410       .  A
C391        C392   1.409       .  A
C391       Br398   1.930       .  S
C392        C393   1.409       .  A
C392       Br397   1.929       .  S
C393        C394   1.407       .  A
C394       Br395   1.928       .  S
C399        C400   1.406       .  A
C399        C404   1.405       .  A
C399       Br406   1.932       .  S
C400        C401   1.416       .  A
C401        C402   1.407       .  A
C401       Br408   1.933       .  S
C402        C403   1.405       .  A
C402       Br407   1.931       .  S
C403        C404   1.415       .  A
C404       Br405   1.933       .  S
C409        C410   1.411       .  A
C409        C414   1.408       .  A
C409       Br416   1.938       .  S
C410        C411   1.414       .  A
C411        C412   1.414       .  A
C411       Br418   1.934       .  S
C412        C413   1.419       .  A
C412       Br417   1.935       .  S
C413        C414   1.418       .  A
C414       Br415   1.926       .  S
C419        C420   1.413       .  A
C419        C424   1.406       .  A
C419       Br426   1.935       .  S
C420        C421   1.411       .  A
C421        C422   1.407       .  A
C421       Br428   1.920       .  S
C422        C423   1.408       .  A
C422       Br427   1.931       .  S
C423        C424   1.411       .  A
C424       Br425   1.933       .  S
C429        C430   1.415       .  A
C429        C434   1.406       .  A
C429       Br436   1.936       .  S
C430        C431   1.406       .  A
C431        C432   1.408       .  A
C431       Br438   1.932       .  S
C432        C433   1.419       .  A
C432       Br437   1.935       .  S
C433        C434   1.410       .  A
C434       Br435   1.933       .  S
C439        C440   1.406       .  A
C439        C444   1.402       .  A
C439       Br446   1.933       .  S
C440        C441   1.418       .  A
C441        C442   1.408       .  A
C441       Br448   1.931       .  S
C442        C443   1.406       .  A
C442       Br447   1.930       .  S
C443        C444   1.418       .  A
C444       Br445   1.937       .  S
C449        C450   1.419       .  A
C449        C454   1.412       .  A
C449       Br456   1.936       .  S
C450        C451   1.420       .  A
C451        C452   1.416       .  A
C451       Br458   1.935       .  S
C452        C453   1.416       .  A
C452       Br457   1.934       .  S
C453        C454   1.414       .  A
C454       Br455   1.936       .  S
C459        C460   1.420       .  A
C459        C464   1.412       .  A
C459      Br1314   1.935   1_554  S
C460        C461   1.411       .  A
C461        C462   1.412       .  A
C461       Br468   1.932       .  S
C462        C463   1.417       .  A
C462       Br467   1.935       .  S
C463        C464   1.407       .  A
C464      Br1313   1.931   1_554  S
Br465      C1312   1.931       .  S
Br466      C1307   1.935       .  S
C469        C470   1.409       .  A
C469        C474   1.408       .  A
C469       Br476   1.927       .  S
C470        C471   1.412       .  A
C471        C472   1.410       .  A
C471       Br478   1.931       .  S
C472        C473   1.408       .  A
C472       Br477   1.928       .  S
C473        C474   1.410       .  A
C474       Br475   1.931       .  S
C479        C480   1.414       .  A
C479        C484   1.409       .  A
C479       Br486   1.928       .  S
C480        C481   1.414       .  A
C481        C482   1.400       .  A
C481       Br488   1.933       .  S
C482        C483   1.406       .  A
C482       Br487   1.932       .  S
C483        C484   1.409       .  A
C484       Br485   1.932       .  S
C489        C490   1.416       .  A
C489        C494   1.404       .  A
C489       Br496   1.933       .  S
C490        C491   1.406       .  A
C491        C492   1.404       .  A
C491       Br498   1.932       .  S
C492        C493   1.414       .  A
C492       Br497   1.932       .  S
C493        C494   1.406       .  A
C494       Br495   1.934       .  S
C499        C500   1.405       .  A
C499        C504   1.409       .  A
C499       Br506   1.929       .  S
C500        C501   1.415       .  A
C501        C502   1.407       .  A
C501       Br508   1.933       .  S
C502        C503   1.406       .  A
C502       Br507   1.930       .  S
C503        C504   1.416       .  A
C504       Br505   1.931       .  S
C509        C510   1.423       .  A
C509        C514   1.408       .  A
C509       Br516   1.938       .  S
C510        C511   1.415       .  A
C511        C512   1.411       .  A
C511       Br518   1.933       .  S
C512        C513   1.414       .  A
C512       Br517   1.935       .  S
C513        C514   1.405       .  A
C514       Br515   1.934       .  S
C519        C520   1.417       .  A
C519        C524   1.415       .  A
C519       Br526   1.933       .  S
C520        C521   1.419       .  A
C521        C522   1.419       .  A
C521       Br528   1.935       .  S
C522        C523   1.416       .  A
C522       Br527   1.925       .  S
C523        C524   1.419       .  A
C524       Br525   1.937       .  S
C529        C530   1.407       .  A
C529        C534   1.409       .  A
C529       Br536   1.926       .  S
C530        C531   1.407       .  A
C531        C532   1.409       .  A
C531       Br538   1.930       .  S
C532        C533   1.415       .  A
C532       Br537   1.924       .  S
C533        C534   1.412       .  A
C534       Br535   1.922       .  S
C539        C540   1.413       .  A
C539        C544   1.410       .  A
C539       Br546   1.930       .  S
C540        C541   1.408       .  A
C541        C542   1.409       .  A
C541       Br548   1.927       .  S
C542        C543   1.411       .  A
C542       Br547   1.931       .  S
C543        C544   1.407       .  A
C544       Br545   1.929       .  S
C549        C550   1.412       .  A
C549        C554   1.404   1_545  A
C549       Br556   1.935   1_545  S
C550        C551   1.403       .  A
C551        C552   1.411       .  A
C551       Br558   1.930       .  S
C552        C553   1.422       .  A
C552       Br557   1.933       .  S
C553        C554   1.412   1_545  A
C554       Br555   1.935       .  S
C559        C560   1.413       .  A
C559        C564   1.406       .  A
C559       Br566   1.934       .  S
C560        C561   1.424   1_565  A
C561        C562   1.411       .  A
C561       Br568   1.933       .  S
C562        C563   1.404       .  A
C562       Br567   1.931       .  S
C563        C564   1.411   1_545  A
C564       Br565   1.934       .  S
C569        C570   1.417       .  A
C569        C574   1.403       .  A
C569      Br1424   1.936       .  S
C570        C571   1.412       .  A
C571        C572   1.406       .  A
C571       Br578   1.923       .  S
C572        C573   1.406       .  A
C572       Br577   1.932       .  S
C573        C574   1.403       .  A
C574      Br1423   1.929       .  S
Br575      C1422   1.929       .  S
Br576      C1417   1.936       .  S
C579        C580   1.416       .  A
C579        C584   1.411       .  A
C579      Br1434   1.932       .  S
C580        C581   1.413       .  A
C581        C582   1.409       .  A
C581       Br588   1.924       .  S
C582        C583   1.408       .  A
C582       Br587   1.932       .  S
C583        C584   1.408       .  A
C584       Br585   1.929       .  S
Br586      C1427   1.932       .  S
C589        C590   1.413       .  A
C589        C594   1.409       .  A
C589       Br596   1.921       .  S
C590        C591   1.415       .  A
C591        C592   1.408       .  A
C591       Br598   1.933       .  S
C592        C593   1.410       .  A
C592       Br597   1.933       .  S
C593        C594   1.409       .  A
C594       Br595   1.934       .  S
C599        C600   1.410       .  A
C599        C604   1.406       .  A
C599       Br606   1.922       .  S
C600        C601   1.413       .  A
C601        C602   1.408       .  A
C601       Br608   1.932       .  S
C602        C603   1.408       .  A
C602      Br1455   1.927       .  S
C603        C604   1.408       .  A
C604       Br605   1.928       .  S
Br607      C1450   1.927   1_554  S
C609        C610   1.414       .  A
C609        C614   1.408       .  A
C609      Br1464   1.934       .  S
C610        C611   1.403       .  A
C611        C612   1.409       .  A
C611       Br618   1.931       .  S
C612        C613   1.421       .  A
C612       Br617   1.935       .  S
C613        C614   1.409       .  A
C614      Br1463   1.931       .  S
Br615      C1462   1.931   1_554  S
Br616      C1457   1.934   1_554  S
C619        C620   1.417       .  A
C619        C624   1.408       .  A
C619       Br626   1.933       .  S
C620        C621   1.404       .  A
C621        C622   1.403       .  A
C621       Br628   1.933       .  S
C622        C623   1.418       .  A
C622       Br627   1.937       .  S
C623        C624   1.407       .  A
C624       Br625   1.931       .  S
C629        C630   1.414       .  A
C629        C634   1.403       .  A
C629       Br636   1.936       .  S
C630        C631   1.403       .  A
C631        C632   1.408       .  A
C631       Br638   1.930       .  S
C632        C633   1.420       .  A
C632       Br637   1.930       .  S
C633        C634   1.409       .  A
C634       Br635   1.933       .  S
C639        C640   1.425       .  A
C639        C644   1.409       .  A
C639       Br646   1.937       .  S
C640        C641   1.421       .  A
C641        C642   1.414       .  A
C641       Br648   1.932       .  S
C642        C643   1.408       .  A
C642       Br647   1.932       .  S
C643        C644   1.403       .  A
C644       Br645   1.934       .  S
C649        C650   1.413       .  A
C649        C654   1.411       .  A
C649       Br656   1.931       .  S
C650        C651   1.403       .  A
C651        C652   1.409       .  A
C651       Br658   1.930       .  S
C652        C653   1.421       .  A
C652       Br657   1.934       .  S
C653        C654   1.412       .  A
C654       Br655   1.931       .  S
C659        C660   1.410       .  A
C659        C664   1.410       .  A
C659       Br666   1.928       .  S
C660        C661   1.409       .  A
C661        C662   1.411       .  A
C661       Br668   1.930       .  S
C662        C663   1.414       .  A
C662       Br667   1.929       .  S
C663        C664   1.415       .  A
C664       Br665   1.933       .  S
C669        C670   1.415       .  A
C669        C674   1.408       .  A
C669       Br676   1.930       .  S
C670        C671   1.408       .  A
C671        C672   1.410       .  A
C671       Br678   1.929       .  S
C672        C673   1.413       .  A
C672       Br677   1.932       .  S
C673        C674   1.404       .  A
C674       Br675   1.929       .  S
C679        C680   1.403       .  A
C679        C684   1.409       .  A
C679       Br686   1.931       .  S
C680        C681   1.414       .  A
C681        C682   1.413       .  A
C681       Br688   1.933       .  S
C682        C683   1.411       .  A
C682       Br687   1.929       .  S
C683        C684   1.418       .  A
C684       Br685   1.927       .  S
C689        C690   1.422       .  A
C689        C694   1.411       .  A
C689       Br696   1.936       .  S
C690        C691   1.422       .  A
C691        C692   1.417       .  A
C691       Br698   1.933       .  S
C692        C693   1.414       .  A
C692       Br697   1.934       .  S
C693        C694   1.411       .  A
C694       Br695   1.931       .  S
C699        C700   1.411       .  A
C699        C704   1.406       .  A
C699       Br706   1.930       .  S
C700        C701   1.406       .  A
C701        C702   1.406       .  A
C701       Br708   1.929       .  S
C702        C703   1.413       .  A
C702       Br707   1.932       .  S
C703        C704   1.407       .  A
C704       Br705   1.930       .  S
C709        C710   1.419       .  A
C709        C714   1.407       .  A
C709       Br716   1.935       .  S
C710        C711   1.409       .  A
C711        C712   1.405       .  A
C711       Br718   1.936       .  S
C712        C713   1.419       .  A
C712       Br717   1.935       .  S
C713        C714   1.408       .  A
C714       Br715   1.934       .  S
C719        C720   1.403       .  A
C719        C724   1.410       .  A
C719       Br726   1.930       .  S
C720        C721   1.411       .  A
C721        C722   1.412       .  A
C721       Br728   1.929       .  S
C722        C723   1.415       .  A
C722       Br727   1.931       .  S
C723        C724   1.422       .  A
C724       Br725   1.934       .  S
C729        C730   1.408       .  A
C729        C734   1.407       .  A
C729       Br736   1.933       .  S
C730        C731   1.412       .  A
C731        C732   1.408       .  A
C731       Br738   1.933       .  S
C732        C733   1.412       .  A
C732       Br737   1.933       .  S
C733        C734   1.413       .  A
C734       Br735   1.926       .  S
C739        C740   1.415       .  A
C739        C744   1.409       .  A
C739       Br746   1.934       .  S
C740        C741   1.402       .  A
C741        C742   1.406       .  A
C741      Br1596   1.931   1_554  S
C742        C743   1.420       .  A
C742       Br747   1.934   1_554  S
C743        C744   1.409       .  A
C744       Br745   1.930       .  S
Br748      C1589   1.931       .  S
C749        C750   1.406       .  A
C749        C754   1.409       .  A
C749       Br756   1.929       .  S
C750        C751   1.417       .  A
C751        C752   1.406       .  A
C751       Br758   1.933       .  S
C752        C753   1.405       .  A
C752       Br757   1.931       .  S
C753        C754   1.416       .  A
C754       Br755   1.933       .  S
C759        C760   1.405       .  A
C759        C764   1.408       .  A
C759       Br766   1.935       .  S
C760        C761   1.417       .  A
C761        C762   1.412       .  A
C761       Br768   1.935       .  S
C762        C763   1.412       .  A
C762       Br767   1.932       .  S
C763        C764   1.423       .  A
C764       Br765   1.934       .  S
C769        C770   1.412       .  A
C769        C774   1.406       .  A
C769       Br776   1.935       .  S
C770        C771   1.423       .  A
C771        C772   1.408       .  A
C771       Br778   1.936       .  S
C772        C773   1.406       .  A
C772       Br777   1.934       .  S
C773        C774   1.415       .  A
C774       Br775   1.938       .  S
C779        C780   1.411       .  A
C779        C784   1.407       .  A
C779       Br786   1.932       .  S
C780        C781   1.412       .  A
C781        C782   1.410       .  A
C781       Br788   1.932       .  S
C782        C783   1.410       .  A
C782       Br787   1.930       .  S
C783        C784   1.409       .  A
C784       Br785   1.927       .  S
C789        C790   1.412   1_565  A
C789        C794   1.405       .  A
C789       Br796   1.936       .  S
C790        C791   1.402   1_655  A
C791        C792   1.410       .  A
C791       Br798   1.931       .  S
C792        C793   1.425   1_445  A
C792       Br797   1.932       .  S
C793        C794   1.412       .  A
C794       Br795   1.933       .  S
C799        C800   1.400   1_455  A
C799       C1652   1.409       .  A
C799       Br806   1.935       .  S
C800        C801   1.402       .  A
C801       C1650   1.409       .  A
C801       Br808   1.932       .  S
C802        C803   1.426       .  A
C802       C1649   1.409   1_554  A
C802       Br807   1.937   1_545  S
C803        C804   1.431   1_655  A
C804       C1647   1.409   1_554  A
C804       Br805   1.937       .  S
C809        C810   1.434       .  A
C809        C814   1.411       .  A
C809       Br816   1.939       .  S
C810        C811   1.426       .  A
C811        C812   1.415       .  A
C811       Br818   1.936       .  S
C812        C813   1.408       .  A
C812       Br817   1.933       .  S
C813        C814   1.400       .  A
C814       Br815   1.937       .  S
C819        C820   1.405       .  A
C819        C824   1.408       .  A
C819       Br826   1.933       .  S
C820        C821   1.410       .  A
C821        C822   1.412       .  A
C821       Br828   1.924       .  S
C822        C823   1.416       .  A
C822       Br827   1.933       .  S
C823        C824   1.422       .  A
C824       Br825   1.936       .  S
C829        C830   1.402       .  A
C829        C834   1.411       .  A
C829       Br836   1.933       .  S
C830        C831   1.407       .  A
C831        C832   1.412       .  A
C831       Br838   1.934       .  S
C832        C833   1.423       .  A
C832       Br837   1.932       .  S
C833        C834   1.428       .  A
C834       Br835   1.938       .  S
C839        C840   1.413       .  A
C839        C844   1.411       .  A
C839       Br846   1.934       .  S
C840        C841   1.412       .  A
C841        C842   1.410       .  A
C841       Br848   1.934       .  S
C842        C843   1.416       .  A
C842       Br847   1.935       .  S
C843        C844   1.417       .  A
C844       Br845   1.933       .  S
Zn849       O853   1.913   1_565  S
Zn849       O854   1.963   1_455  S
Zn849       O858   1.918       .  S
Zn849       O865   1.973       .  S
Zn850       O853   1.954   1_665  S
Zn850       O855   2.001   1_565  S
Zn850       O857   2.074       .  S
Zn850       O861   2.006       .  S
Zn851       O853   1.979       .  S
Zn851       O856   2.080   1_455  S
Zn851       O859   2.054   1_455  S
Zn851       O862   2.047       .  S
Zn852       O853   1.959   1_565  S
Zn852       O860   2.006   1_565  S
Zn852       O863   2.020       .  S
Zn852       O864   2.067       .  S
O854        C866   1.265       .  A
O855        C867   1.272       .  A
O856        C868   1.280       .  A
O857        C866   1.280       .  A
O858        C868   1.262   1_465  A
O859        C867   1.277       .  A
O860        C869   1.273       .  A
O861        C870   1.273       .  A
O862        C869   1.278       .  A
O863        C870   1.271   1_455  A
O864        C871   1.278       .  A
O865        C871   1.266       .  A
C866       C1671   1.494       .  S
C867       C1661   1.481       .  S
C868       C1638   1.471       .  S
C869       C1691   1.492       .  S
C870       C1651   1.504   1_565  S
C871       C1678   1.476       .  S
Zn872       O876   1.921   1_565  S
Zn872       O877   1.971       .  S
Zn872       O881   1.959       .  S
Zn872       O888   1.975   1_655  S
Zn873       O876   1.951   1_565  S
Zn873       O878   1.993   1_565  S
Zn873       O880   2.074       .  S
Zn873       O884   2.008       .  S
Zn874       O876   1.977       .  S
Zn874       O879   2.060       .  S
Zn874       O882   2.031       .  S
Zn874       O885   2.045   1_655  S
Zn875       O876   1.955   1_465  S
Zn875       O883   1.979   1_565  S
Zn875       O886   2.013       .  S
Zn875       O887   2.031       .  S
O877        C889   1.266       .  A
O878        C890   1.270       .  A
O879        C891   1.279       .  A
O880        C889   1.280       .  A
O881        C891   1.267   1_565  A
O882        C890   1.275       .  A
O883        C892   1.267       .  A
O884        C893   1.274       .  A
O885        C892   1.276       .  A
O886        C893   1.274   1_455  A
O887        C894   1.274       .  A
O888        C894   1.266       .  A
C889       C1611   1.493       .  S
C890       C1601   1.475       .  S
C891       C1648   1.468       .  S
C892       C1628   1.478       .  S
C893       C1641   1.488       .  S
C894       C1618   1.486       .  S
Zn895       O899   1.955       .  S
Zn895       O900   2.064       .  S
Zn895       O904   1.999       .  S
Zn895       O911   2.019       .  S
Zn896       O899   1.920       .  S
Zn896       O903   1.954       .  S
Zn896       O907   1.966       .  S
Zn897       O899   1.981       .  S
Zn897       O902   2.046       .  S
Zn897       O905   2.071       .  S
Zn897       O908   2.055       .  S
Zn898       O899   1.949       .  S
Zn898       O906   2.009       .  S
Zn898       O909   2.043       .  S
Zn898       O910   1.990       .  S
O900        C912   1.278       .  A
O901        C913   1.263   1_554  A
O902        C914   1.277       .  A
O903        C912   1.264       .  A
O904        C914   1.271       .  A
O906        C915   1.272       .  A
O907        C916   1.265       .  A
O908        C915   1.278       .  A
O909        C916   1.275       .  A
O910        C917   1.270       .  A
O911        C917   1.276       .  A
C912       C1591   1.481       .  S
C913       C1551   1.469       .  S
C914       C1688   1.487       .  S
C915       C1568   1.481       .  S
C916       C1578   1.475       .  S
C917       C1561   1.483       .  S
Zn918       O922   1.928       .  S
Zn918       O923   1.939       .  S
Zn918       O927   1.980       .  S
Zn918       O934   1.980       .  S
Zn919       O922   1.984       .  S
Zn919       O924   2.063       .  S
Zn919       O926   2.071       .  S
Zn919       O930   2.059       .  S
Zn920       O922   1.963       .  S
Zn920       O925   2.058       .  S
Zn920       O928   2.017       .  S
Zn920       O931   2.010       .  S
Zn921       O922   1.959       .  S
Zn921       O929   1.990       .  S
Zn921       O932   1.992       .  S
Zn921       O933   2.061       .  S
O923        C935   1.265       .  A
O924        C936   1.278       .  A
O925        C937   1.277       .  A
O926        C935   1.281       .  A
O927        C937   1.267       .  A
O928        C936   1.273       .  A
O929        C938   1.272       .  A
O930        C939   1.278       .  A
O931        C938   1.274       .  A
O932        C939   1.269       .  A
O933        C940   1.277       .  A
O934        C940   1.267       .  A
C935       C1548   1.468       .  S
C936       C1541   1.497       .  S
C937       C1631   1.476       .  S
C938       C1558   1.479       .  S
C939       C1528   1.480       .  S
C940       C1518   1.480       .  S
Zn941       O945   1.918       .  S
Zn941       O946   1.986       .  S
Zn941       O950   1.922       .  S
Zn941       O957   1.980       .  S
Zn942       O945   1.957       .  S
Zn942       O947   1.996       .  S
Zn942       O949   2.061       .  S
Zn942       O953   2.001       .  S
Zn943       O945   1.983       .  S
Zn943       O948   2.070       .  S
Zn943       O951   2.058       .  S
Zn943       O954   2.040       .  S
Zn944       O945   1.967       .  S
Zn944       O952   2.009       .  S
Zn944       O955   2.001       .  S
Zn944       O956   2.064       .  S
O946        C958   1.268       .  A
O947        C959   1.270       .  A
O948        C960   1.279       .  A
O949        C958   1.277       .  A
O950        C960   1.263       .  A
O951        C959   1.278       .  A
O952        C961   1.272       .  A
O953        C962   1.273       .  A
O954        C961   1.276       .  A
O955        C962   1.273       .  A
O956        C963   1.276       .  A
O957        C963   1.265       .  A
C958       C1491   1.478       .  S
C959       C1498   1.479       .  S
C960       C1478   1.469       .  S
C961       C1511   1.487       .  S
C962       C1468   1.473       .  S
C963       C1681   1.505       .  S
Zn964       O968   1.913       .  S
Zn964       O969   1.969       .  S
Zn964       O973   1.929       .  S
Zn964       O980   1.963       .  S
Zn965       O968   1.962       .  S
Zn965       O970   2.002       .  S
Zn965       O972   2.063       .  S
Zn965       O976   2.017       .  S
Zn966       O968   1.980       .  S
Zn966       O971   2.068       .  S
Zn966       O974   2.036       .  S
Zn966       O977   2.062       .  S
Zn967       O968   1.947       .  S
Zn967       O975   1.965       .  S
Zn967       O978   1.987       .  S
Zn967       O979   2.038       .  S
O969        C981   1.266       .  A
O970        C982   1.272       .  A
O971        C983   1.280       .  A
O972        C981   1.278       .  A
O973        C983   1.263       .  A
O974        C982   1.276       .  A
O975        C984   1.266       .  A
O977        C984   1.278       .  A
O979        C986   1.274       .  A
O980        C986   1.266       .  A
C981       C1438   1.486       .  S
C982       C1448   1.480       .  S
C983       C1471   1.474       .  S
C984       C1458   1.475       .  S
C985       C1481   1.478       .  S
C986       C1621   1.478       .  S
Zn987       O991   1.906       .  S
Zn987       O992   1.958       .  S
Zn987       O996   1.940       .  S
Zn987      O1003   1.914       .  S
Zn988       O993   2.004       .  S
Zn988       O995   2.068       .  S
Zn988       O999   1.976   1_565  S
Zn989       O994   2.056       .  S
Zn989       O997   2.017       .  S
Zn989      O1000   2.012   1_565  S
Zn990       O991   1.978   1_545  S
Zn990       O998   2.047   1_556  S
Zn990      O1001   2.046       .  S
Zn990      O1002   2.086       .  S
O992       C1004   1.264       .  A
O993       C1005   1.273       .  A
O996       C1006   1.262       .  A
O997       C1005   1.274       .  A
O999       C1008   1.268       .  A
O1000      C1007   1.273       .  A
O1002      C1009   1.280       .  A
O1003      C1009   1.261   1_565  A
C1004      C1461   1.485       .  S
C1005      C1408   1.489       .  S
C1006      C1418   1.478       .  S
C1007      C1428   1.490       .  S
C1008      C1588   1.472       .  S
C1009      C1398   1.470       .  S
Zn1010     O1014   1.927       .  S
Zn1010     O1015   1.980       .  S
Zn1010     O1019   1.942       .  S
Zn1010     O1026   1.979       .  S
Zn1011     O1014   1.953       .  S
Zn1011     O1016   1.983   1_565  S
Zn1011     O1018   2.057       .  S
Zn1011     O1022   1.997       .  S
Zn1012     O1014   1.988   1_545  S
Zn1012     O1017   2.081       .  S
Zn1012     O1020   2.066       .  S
Zn1012     O1023   2.071       .  S
Zn1013     O1014   1.964       .  S
Zn1013     O1021   2.004   1_565  S
Zn1013     O1024   2.020       .  S
Zn1013     O1025   2.065       .  S
O1015      C1027   1.267       .  A
O1016      C1028   1.268       .  A
O1017      C1029   1.282       .  A
O1018      C1027   1.276       .  A
O1019      C1029   1.265   1_565  A
O1020      C1028   1.279       .  A
O1021      C1030   1.271       .  A
O1022      C1031   1.272       .  A
O1023      C1030   1.279       .  A
O1024      C1031   1.275       .  A
O1025      C1032   1.278       .  A
O1026      C1032   1.267       .  A
C1027      C1378   1.477       .  S
C1028      C1388   1.477       .  S
C1029      C1411   1.474       .  S
C1030      C1538   1.507       .  S
C1031      C1401   1.485   1_565  S
C1032      C1508   1.480       .  S
Zn1033     O1037   1.963       .  S
Zn1033     O1038   2.059       .  S
Zn1033     O1042   2.001       .  S
Zn1033     O1049   1.976       .  S
Zn1034     O1037   1.931       .  S
Zn1034     O1039   1.981       .  S
Zn1034     O1041   1.984       .  S
Zn1034     O1045   1.935       .  S
Zn1035     O1037   1.951       .  S
Zn1035     O1040   1.993       .  S
Zn1035     O1043   2.050       .  S
Zn1035     O1046   1.993       .  S
Zn1036     O1037   1.992       .  S
Zn1036     O1044   2.105       .  S
Zn1036     O1047   2.091       .  S
Zn1036     O1048   2.087       .  S
O1038      C1050   1.275       .  A
O1039      C1051   1.267       .  A
O1040      C1052   1.273       .  A
O1041      C1050   1.266       .  A
O1042      C1052   1.274       .  A
O1043      C1051   1.275       .  A
O1044      C1053   1.282       .  A
O1045      C1054   1.264       .  A
O1046      C1053   1.269       .  A
O1047      C1054   1.285       .  A
O1048      C1055   1.283       .  A
O1049      C1055   1.268       .  A
C1050      C1668   1.481       .  S
C1051      C1358   1.493       .  S
C1052      C1338   1.470       .  S
C1053      C1371   1.511       .  S
C1054      C1351   1.474       .  S
C1055      C1381   1.487       .  S
Zn1056     O1060   1.963       .  S
Zn1056     O1061   2.002       .  S
Zn1056     O1065   2.037       .  S
Zn1056     O1072   1.996       .  S
Zn1057     O1060   1.951       .  S
Zn1057     O1062   2.028       .  S
Zn1057     O1064   1.985       .  S
Zn1057     O1068   1.983       .  S
Zn1058     O1060   1.911       .  S
Zn1058     O1063   1.951       .  S
Zn1058     O1066   1.962       .  S
Zn1059     O1060   1.976       .  S
Zn1059     O1067   2.089       .  S
Zn1059     O1070   2.056       .  S
Zn1059     O1071   2.050       .  S
O1061      C1073   1.272       .  A
O1062      C1074   1.272       .  A
O1063      C1075   1.264       .  A
O1064      C1073   1.271       .  A
O1065      C1075   1.273       .  A
O1066      C1074   1.265       .  A
O1068      C1077   1.269       .  A
O1069      C1076   1.262       .  A
O1070      C1077   1.279       .  A
O1071      C1078   1.278       .  A
O1072      C1078   1.271       .  A
C1073      C1341   1.469       .  S
C1074      C1421   1.463       .  S
C1075      C1328   1.478       .  S
C1076      C1348   1.473       .  S
C1077      C1608   1.483       .  S
C1078      C1318   1.477       .  S
Zn1079     O1083   1.984       .  S
Zn1079     O1084   2.061       .  S
Zn1079     O1088   2.065       .  S
Zn1079     O1095   2.069       .  S
Zn1080     O1083   1.956       .  S
Zn1080     O1085   2.009       .  S
Zn1080     O1087   2.000       .  S
Zn1080     O1091   2.054       .  S
Zn1081     O1083   1.954       .  S
Zn1081     O1086   1.995       .  S
Zn1081     O1089   1.994       .  S
Zn1081     O1092   2.069       .  S
Zn1082     O1083   1.928       .  S
Zn1082     O1090   1.986       .  S
Zn1082     O1093   1.987       .  S
O1084      C1096   1.277       .  A
O1085      C1097   1.275       .  A
O1086      C1098   1.270       .  A
O1087      C1096   1.267       .  A
O1088      C1098   1.278       .  A
O1089      C1097   1.273       .  A
O1090      C1099   1.268       .  A
O1091      C1100   1.276       .  A
O1092      C1099   1.279       .  A
O1093      C1100   1.268       .  A
O1094      C1101   1.266   1_554  A
C1096      C1658   1.514       .  S
C1097      C1288   1.476       .  S
C1098      C1298   1.502       .  S
C1099      C1308   1.491       .  S
C1100      C1431   1.478       .  S
C1101      C1278   1.476       .  S
Zn1102     O1106   1.961       .  S
Zn1102     O1107   2.012       .  S
Zn1102     O1111   2.009       .  S
Zn1102     O1118   2.059       .  S
Zn1103     O1106   1.987       .  S
Zn1103     O1108   2.053       .  S
Zn1103     O1110   2.047       .  S
Zn1103     O1114   2.072       .  S
Zn1104     O1106   1.953       .  S
Zn1104     O1109   2.004       .  S
Zn1104     O1112   1.980       .  S
Zn1104     O1115   2.064       .  S
Zn1105     O1106   1.914       .  S
Zn1105     O1113   1.973       .  S
Zn1105     O1116   1.919       .  S
Zn1105     O1117   1.960       .  S
O1107      C1119   1.272       .  A
O1108      C1120   1.279       .  A
O1109      C1121   1.273       .  A
O1110      C1119   1.276       .  A
O1111      C1121   1.274       .  A
O1112      C1120   1.270       .  A
O1113      C1122   1.265       .  A
O1114      C1123   1.279       .  A
O1115      C1122   1.277       .  A
O1116      C1123   1.262       .  A
O1117      C1124   1.266       .  A
O1118      C1124   1.278       .  A
C1119      C1261   1.499       .  S
C1120      C1598   1.477       .  S
C1121      C1281   1.482       .  S
C1122      C1391   1.476       .  S
C1123      C1291   1.476       .  S
C1124      C1268   1.479       .  S
Zn1125     O1130   1.987       .  S
Zn1125     O1134   1.999       .  S
Zn1125     O1141   2.038       .  S
Zn1126     O1129   1.983   1_556  S
Zn1126     O1131   2.055       .  S
Zn1126     O1133   2.068       .  S
Zn1126     O1137   2.091       .  S
Zn1127     O1132   2.008       .  S
Zn1127     O1135   1.979       .  S
Zn1127     O1138   2.051       .  S
Zn1128     O1129   1.918   1_556  S
Zn1128     O1136   1.968       .  S
Zn1128     O1139   1.928       .  S
Zn1128     O1140   1.945       .  S
O1130      C1142   1.269       .  A
O1132      C1144   1.273       .  A
O1134      C1144   1.273       .  A
O1135      C1143   1.269       .  A
O1136      C1145   1.265       .  A
O1137      C1146   1.282       .  A
O1139      C1146   1.261       .  A
O1140      C1147   1.264       .  A
C1142      C1311   1.487       .  S
C1143      C1581   1.479       .  S
C1144      C1248   1.473       .  S
C1145      C1451   1.474       .  S
C1146      C1238   1.470       .  S
C1147      C1331   1.467       .  S
Zn1148     O1152   1.928       .  S
Zn1148     O1153   1.986       .  S
Zn1148     O1157   1.936       .  S
Zn1148     O1164   1.961       .  S
Zn1149     O1152   1.963       .  S
Zn1149     O1154   1.998       .  S
Zn1149     O1156   2.072       .  S
Zn1149     O1160   2.004       .  S
Zn1150     O1152   1.987       .  S
Zn1150     O1155   2.086       .  S
Zn1150     O1158   2.057       .  S
Zn1150     O1161   2.068       .  S
Zn1151     O1152   1.962       .  S
Zn1151     O1159   2.021       .  S
Zn1151     O1162   2.004       .  S
Zn1151     O1163   2.050       .  S
O1153      C1165   1.267       .  A
O1154      C1166   1.272       .  A
O1155      C1167   1.282       .  A
O1156      C1165   1.278       .  A
O1157      C1167   1.264       .  A
O1158      C1166   1.279       .  A
O1159      C1168   1.272       .  A
O1160      C1169   1.273       .  A
O1161      C1168   1.278       .  A
O1162      C1169   1.274       .  A
O1163      C1170   1.278       .  A
O1164      C1170   1.265       .  A
C1165      C1531   1.490       .  S
C1166      C1501   1.491       .  S
C1167      C1241   1.469       .  S
C1168      C1368   1.507       .  S
C1169      C1251   1.472       .  S
C1170      C1271   1.473       .  S
Zn1171     O1175   1.919       .  S
Zn1171     O1176   1.978       .  S
Zn1171     O1180   1.917       .  S
Zn1171     O1187   1.986   1_455  S
Zn1172     O1175   1.958       .  S
Zn1172     O1177   2.011       .  S
Zn1172     O1179   2.073       .  S
Zn1172     O1183   2.004       .  S
Zn1173     O1175   1.984       .  S
Zn1173     O1178   2.078       .  S
Zn1173     O1181   2.052       .  S
Zn1173     O1184   2.065   1_455  S
Zn1174     O1175   1.955   1_655  S
Zn1174     O1182   2.002       .  S
Zn1174     O1185   2.009       .  S
Zn1174     O1186   2.046       .  S
O1176      C1188   1.266       .  A
O1177      C1189   1.273       .  A
O1178      C1190   1.281       .  A
O1179      C1188   1.278       .  A
O1180      C1190   1.262       .  A
O1181      C1189   1.278       .  A
O1182      C1191   1.271       .  A
O1183      C1192   1.273       .  A
O1184      C1191   1.279       .  A
O1185      C1192   1.273   1_655  A
O1186      C1193   1.276       .  A
O1187      C1193   1.268       .  A
C1188      C1488   1.502       .  S
C1189      C1571   1.494       .  S
C1190      C1218   1.471       .  S
C1191      C1301   1.497       .  S
C1192      C1231   1.482       .  S
C1193      C1361   1.482       .  S
Zn1194     O1198   1.920       .  S
Zn1194     O1199   1.937       .  S
Zn1194     O1203   1.969       .  S
Zn1194     O1210   1.969   1_655  S
Zn1195     O1198   1.978       .  S
Zn1195     O1200   2.047       .  S
Zn1195     O1202   2.069   1_655  S
Zn1195     O1206   2.048   1_655  S
Zn1196     O1198   1.959       .  S
Zn1196     O1201   2.065       .  S
Zn1196     O1204   1.997       .  S
Zn1196     O1207   2.015       .  S
Zn1197     O1198   1.951   1_455  S
Zn1197     O1205   1.988       .  S
Zn1197     O1208   1.989       .  S
Zn1197     O1209   2.046       .  S
O1199      C1211   1.264   1_655  A
O1200      C1212   1.277       .  A
O1201      C1213   1.278       .  A
O1202      C1211   1.280       .  A
O1203      C1213   1.266       .  A
O1204      C1212   1.271       .  A
O1205      C1214   1.271       .  A
O1206      C1215   1.276       .  A
O1207      C1214   1.274   1_655  A
O1208      C1215   1.269       .  A
O1209      C1216   1.276       .  A
O1210      C1216   1.266       .  A
C1211      C1228   1.471       .  S
C1212      C1258   1.489       .  S
C1213      C1321   1.473       .  S
C1214      C1221   1.481       .  S
C1215      C1521   1.474       .  S
C1216      C1441   1.477       .  S
C1217      C1218   1.404   1_655  A
C1217      C1222   1.409       .  A
C1217     Br1224   1.930       .  S
C1218      C1219   1.413       .  A
C1219      C1220   1.404       .  A
C1219     Br1226   1.936       .  S
C1220      C1221   1.412       .  A
C1220     Br1225   1.935       .  S
C1221      C1222   1.421   1_455  A
C1222     Br1223   1.933       .  S
C1227      C1228   1.405   1_655  A
C1227     Br1234   1.932       .  S
C1228      C1229   1.412       .  A
C1229     Br1236   1.935       .  S
C1230      C1231   1.412       .  A
C1230     Br1235   1.934       .  S
C1231      C1232   1.421   1_455  A
C1232     Br1233   1.935       .  S
C1237      C1238   1.410       .  A
C1237      C1242   1.407       .  A
C1237     Br1244   1.929       .  S
C1238      C1239   1.410       .  A
C1239      C1240   1.409       .  A
C1239     Br1246   1.930       .  S
C1240      C1241   1.409       .  A
C1240     Br1245   1.929       .  S
C1241      C1242   1.407       .  A
C1242     Br1243   1.928       .  S
C1247      C1248   1.406       .  A
C1247      C1252   1.405       .  A
C1247     Br1254   1.932       .  S
C1248      C1249   1.416       .  A
C1249      C1250   1.407       .  A
C1249     Br1256   1.933       .  S
C1250      C1251   1.405       .  A
C1250     Br1255   1.931       .  S
C1251      C1252   1.415       .  A
C1252     Br1253   1.933       .  S
C1257      C1258   1.411       .  A
C1257      C1262   1.408       .  A
C1257     Br1264   1.938       .  S
C1258      C1259   1.414       .  A
C1259      C1260   1.414       .  A
C1259     Br1266   1.934       .  S
C1260      C1261   1.419       .  A
C1260     Br1265   1.935       .  S
C1261      C1262   1.418       .  A
C1262     Br1263   1.927       .  S
C1267      C1268   1.413       .  A
C1267      C1272   1.406       .  A
C1267     Br1274   1.935       .  S
C1268      C1269   1.411       .  A
C1269      C1270   1.407       .  A
C1269     Br1276   1.920       .  S
C1270      C1271   1.408       .  A
C1270     Br1275   1.931       .  S
C1271      C1272   1.411       .  A
C1272     Br1273   1.933       .  S
C1277      C1278   1.415       .  A
C1277      C1282   1.406       .  A
C1277     Br1284   1.936       .  S
C1278      C1279   1.406       .  A
C1279      C1280   1.408       .  A
C1279     Br1286   1.932       .  S
C1280      C1281   1.420       .  A
C1280     Br1285   1.935       .  S
C1281      C1282   1.410       .  A
C1282     Br1283   1.933       .  S
C1287      C1288   1.406       .  A
C1287      C1292   1.402       .  A
C1287     Br1294   1.933       .  S
C1288      C1289   1.418       .  A
C1289      C1290   1.408       .  A
C1289     Br1296   1.931       .  S
C1290      C1291   1.406       .  A
C1290     Br1295   1.930       .  S
C1291      C1292   1.418       .  A
C1292     Br1293   1.937       .  S
C1297      C1298   1.419       .  A
C1297      C1302   1.412       .  A
C1297     Br1304   1.936       .  S
C1298      C1299   1.420       .  A
C1299      C1300   1.416       .  A
C1299     Br1306   1.935       .  S
C1300      C1301   1.416       .  A
C1300     Br1305   1.934       .  S
C1301      C1302   1.414       .  A
C1302     Br1303   1.936       .  S
C1307      C1308   1.420       .  A
C1307      C1312   1.412       .  A
C1308      C1309   1.411       .  A
C1309      C1310   1.412       .  A
C1309     Br1316   1.932       .  S
C1310      C1311   1.417       .  A
C1310     Br1315   1.935       .  S
C1311      C1312   1.407       .  A
C1317      C1318   1.409       .  A
C1317      C1322   1.408       .  A
C1317     Br1324   1.927       .  S
C1318      C1319   1.412       .  A
C1319      C1320   1.410       .  A
C1319     Br1326   1.931       .  S
C1320      C1321   1.408       .  A
C1320     Br1325   1.928       .  S
C1321      C1322   1.410       .  A
C1322     Br1323   1.931       .  S
C1327      C1328   1.414       .  A
C1327      C1332   1.409       .  A
C1327     Br1334   1.928       .  S
C1328      C1329   1.414       .  A
C1329      C1330   1.400       .  A
C1329     Br1336   1.933       .  S
C1330      C1331   1.406       .  A
C1330     Br1335   1.932       .  S
C1331      C1332   1.409       .  A
C1332     Br1333   1.932       .  S
C1337      C1338   1.416       .  A
C1337      C1342   1.404       .  A
C1337     Br1344   1.933       .  S
C1338      C1339   1.406       .  A
C1339      C1340   1.404       .  A
C1339     Br1346   1.932       .  S
C1340      C1341   1.415       .  A
C1340     Br1345   1.932       .  S
C1341      C1342   1.406       .  A
C1342     Br1343   1.934       .  S
C1347      C1348   1.405       .  A
C1347      C1352   1.409       .  A
C1347     Br1354   1.929       .  S
C1348      C1349   1.415       .  A
C1349      C1350   1.407       .  A
C1349     Br1356   1.933       .  S
C1350      C1351   1.406       .  A
C1350     Br1355   1.930       .  S
C1351      C1352   1.416       .  A
C1352     Br1353   1.931       .  S
C1357      C1358   1.423       .  A
C1357      C1362   1.408       .  A
C1357     Br1364   1.938       .  S
C1358      C1359   1.415       .  A
C1359      C1360   1.411       .  A
C1359     Br1366   1.933       .  S
C1360      C1361   1.414       .  A
C1360     Br1365   1.935       .  S
C1361      C1362   1.405       .  A
C1362     Br1363   1.934       .  S
C1367      C1368   1.417       .  A
C1367      C1372   1.415       .  A
C1367     Br1374   1.933       .  S
C1368      C1369   1.419       .  A
C1369      C1370   1.419       .  A
C1369     Br1376   1.935       .  S
C1370      C1371   1.416       .  A
C1370     Br1375   1.925       .  S
C1371      C1372   1.419       .  A
C1372     Br1373   1.937       .  S
C1377      C1378   1.407       .  A
C1377      C1382   1.409       .  A
C1377     Br1384   1.926       .  S
C1378      C1379   1.407       .  A
C1379      C1380   1.409       .  A
C1379     Br1386   1.930       .  S
C1380      C1381   1.415       .  A
C1380     Br1385   1.924       .  S
C1381      C1382   1.412       .  A
C1382     Br1383   1.922       .  S
C1387      C1388   1.413       .  A
C1387      C1392   1.410       .  A
C1387     Br1394   1.930       .  S
C1388      C1389   1.408       .  A
C1389      C1390   1.409       .  A
C1389     Br1396   1.927       .  S
C1390      C1391   1.411       .  A
C1390     Br1395   1.931       .  S
C1391      C1392   1.407       .  A
C1392     Br1393   1.929       .  S
C1397      C1398   1.412       .  A
C1397      C1402   1.404   1_545  A
C1397     Br1404   1.935   1_545  S
C1398      C1399   1.404       .  A
C1399      C1400   1.411       .  A
C1399     Br1406   1.930       .  S
C1400      C1401   1.422       .  A
C1400     Br1405   1.933       .  S
C1401      C1402   1.412   1_545  A
C1402     Br1403   1.935       .  S
C1407      C1408   1.413       .  A
C1407      C1412   1.406       .  A
C1407     Br1414   1.934       .  S
C1408      C1409   1.424   1_565  A
C1409      C1410   1.411       .  A
C1409     Br1416   1.933       .  S
C1410      C1411   1.404       .  A
C1410     Br1415   1.931       .  S
C1411      C1412   1.411   1_545  A
C1412     Br1413   1.934       .  S
C1417      C1418   1.417       .  A
C1417      C1422   1.403       .  A
C1418      C1419   1.412       .  A
C1419      C1420   1.406       .  A
C1419     Br1426   1.923       .  S
C1420      C1421   1.406       .  A
C1420     Br1425   1.932       .  S
C1421      C1422   1.403       .  A
C1427      C1428   1.416       .  A
C1427      C1432   1.411       .  A
C1428      C1429   1.413       .  A
C1429      C1430   1.409       .  A
C1429     Br1436   1.924       .  S
C1430      C1431   1.408       .  A
C1430     Br1435   1.932       .  S
C1431      C1432   1.408       .  A
C1432     Br1433   1.929       .  S
C1437      C1438   1.413       .  A
C1437      C1442   1.409       .  A
C1437     Br1444   1.921       .  S
C1438      C1439   1.415       .  A
C1439      C1440   1.408       .  A
C1439     Br1446   1.933       .  S
C1440      C1441   1.410       .  A
C1440     Br1445   1.933       .  S
C1441      C1442   1.409       .  A
C1442     Br1443   1.934       .  S
C1447      C1448   1.410       .  A
C1447      C1452   1.406       .  A
C1447     Br1454   1.922       .  S
C1448      C1449   1.413       .  A
C1449      C1450   1.408       .  A
C1449     Br1456   1.932       .  S
C1450      C1451   1.408       .  A
C1451      C1452   1.408       .  A
C1452     Br1453   1.928       .  S
C1457      C1458   1.414       .  A
C1457      C1462   1.408       .  A
C1458      C1459   1.403       .  A
C1459      C1460   1.409       .  A
C1459     Br1466   1.931       .  S
C1460      C1461   1.421       .  A
C1460     Br1465   1.935       .  S
C1461      C1462   1.409       .  A
C1467      C1468   1.417       .  A
C1467      C1472   1.408       .  A
C1467     Br1474   1.933       .  S
C1468      C1469   1.404       .  A
C1469      C1470   1.403       .  A
C1469     Br1476   1.933       .  S
C1470      C1471   1.418       .  A
C1470     Br1475   1.937       .  S
C1471      C1472   1.407       .  A
C1472     Br1473   1.931       .  S
C1477      C1478   1.414       .  A
C1477      C1482   1.403       .  A
C1477     Br1484   1.936       .  S
C1478      C1479   1.403       .  A
C1479      C1480   1.408       .  A
C1479     Br1486   1.930       .  S
C1480      C1481   1.420       .  A
C1480     Br1485   1.930       .  S
C1481      C1482   1.409       .  A
C1482     Br1483   1.933       .  S
C1487      C1488   1.426       .  A
C1487      C1492   1.409       .  A
C1487     Br1494   1.937       .  S
C1488      C1489   1.421       .  A
C1489      C1490   1.414       .  A
C1489     Br1496   1.932       .  S
C1490      C1491   1.408       .  A
C1490     Br1495   1.932       .  S
C1491      C1492   1.403       .  A
C1492     Br1493   1.934       .  S
C1497      C1498   1.413       .  A
C1497      C1502   1.411       .  A
C1497     Br1504   1.931       .  S
C1498      C1499   1.403       .  A
C1499      C1500   1.409       .  A
C1499     Br1506   1.930       .  S
C1500      C1501   1.421       .  A
C1500     Br1505   1.934       .  S
C1501      C1502   1.412       .  A
C1502     Br1503   1.931       .  S
C1507      C1508   1.410       .  A
C1507      C1512   1.409       .  A
C1507     Br1514   1.928       .  S
C1508      C1509   1.409       .  A
C1509      C1510   1.411       .  A
C1509     Br1516   1.930       .  S
C1510      C1511   1.414       .  A
C1510     Br1515   1.929       .  S
C1511      C1512   1.415       .  A
C1512     Br1513   1.933       .  S
C1517      C1518   1.415       .  A
C1517      C1522   1.408       .  A
C1517     Br1524   1.930       .  S
C1518      C1519   1.408       .  A
C1519      C1520   1.410       .  A
C1519     Br1526   1.929       .  S
C1520      C1521   1.413       .  A
C1520     Br1525   1.932       .  S
C1521      C1522   1.404       .  A
C1522     Br1523   1.929       .  S
C1527      C1528   1.403       .  A
C1527      C1532   1.409       .  A
C1527     Br1534   1.931       .  S
C1528      C1529   1.414       .  A
C1529      C1530   1.413       .  A
C1529     Br1536   1.933       .  S
C1530      C1531   1.411       .  A
C1530     Br1535   1.929       .  S
C1531      C1532   1.418       .  A
C1532     Br1533   1.927       .  S
C1537      C1538   1.422       .  A
C1537      C1542   1.411       .  A
C1537     Br1544   1.936       .  S
C1538      C1539   1.421       .  A
C1539      C1540   1.417       .  A
C1539     Br1546   1.933       .  S
C1540      C1541   1.414       .  A
C1540     Br1545   1.934       .  S
C1541      C1542   1.411       .  A
C1542     Br1543   1.931       .  S
C1547      C1548   1.411       .  A
C1547      C1552   1.406       .  A
C1547     Br1554   1.930       .  S
C1548      C1549   1.406       .  A
C1549      C1550   1.406       .  A
C1549     Br1556   1.929       .  S
C1550      C1551   1.413       .  A
C1550     Br1555   1.932       .  S
C1551      C1552   1.407       .  A
C1552     Br1553   1.930       .  S
C1557      C1558   1.419       .  A
C1557      C1562   1.407       .  A
C1557     Br1564   1.935       .  S
C1558      C1559   1.409       .  A
C1559      C1560   1.405       .  A
C1559     Br1566   1.936       .  S
C1560      C1561   1.419       .  A
C1560     Br1565   1.935       .  S
C1561      C1562   1.408       .  A
C1562     Br1563   1.934       .  S
C1567      C1568   1.403       .  A
C1567      C1572   1.410       .  A
C1567     Br1574   1.930       .  S
C1568      C1569   1.411       .  A
C1569      C1570   1.412       .  A
C1569     Br1576   1.929       .  S
C1570      C1571   1.415       .  A
C1570     Br1575   1.931       .  S
C1571      C1572   1.422       .  A
C1572     Br1573   1.934       .  S
C1577      C1578   1.408       .  A
C1577      C1582   1.407       .  A
C1577     Br1584   1.933       .  S
C1578      C1579   1.412       .  A
C1579      C1580   1.408       .  A
C1579     Br1586   1.933       .  S
C1580      C1581   1.412       .  A
C1580     Br1585   1.933       .  S
C1581      C1582   1.413       .  A
C1582     Br1583   1.926       .  S
C1587      C1588   1.415       .  A
C1587      C1592   1.409       .  A
C1587     Br1594   1.934       .  S
C1588      C1589   1.402       .  A
C1589      C1590   1.406       .  A
C1590      C1591   1.420       .  A
C1590     Br1595   1.934       .  S
C1591      C1592   1.409       .  A
C1592     Br1593   1.930       .  S
C1597      C1598   1.406       .  A
C1597      C1602   1.409       .  A
C1597     Br1604   1.929       .  S
C1598      C1599   1.417       .  A
C1599      C1600   1.406       .  A
C1599     Br1606   1.933       .  S
C1600      C1601   1.405       .  A
C1600     Br1605   1.931       .  S
C1601      C1602   1.416       .  A
C1602     Br1603   1.933       .  S
C1607      C1608   1.405       .  A
C1607      C1612   1.408       .  A
C1607     Br1614   1.935       .  S
C1608      C1609   1.417       .  A
C1609      C1610   1.412       .  A
C1609     Br1616   1.935       .  S
C1610      C1611   1.412       .  A
C1610     Br1615   1.932       .  S
C1611      C1612   1.423       .  A
C1612     Br1613   1.934       .  S
C1617      C1618   1.412       .  A
C1617      C1622   1.406       .  A
C1617     Br1624   1.934       .  S
C1618      C1619   1.423       .  A
C1619      C1620   1.408       .  A
C1619     Br1626   1.936       .  S
C1620      C1621   1.406       .  A
C1620     Br1625   1.934       .  S
C1621      C1622   1.415       .  A
C1622     Br1623   1.938       .  S
C1627      C1628   1.411       .  A
C1627      C1632   1.407       .  A
C1627     Br1634   1.932       .  S
C1628      C1629   1.412       .  A
C1629      C1630   1.410       .  A
C1629     Br1636   1.932       .  S
C1630      C1631   1.410       .  A
C1630     Br1635   1.929       .  S
C1631      C1632   1.409       .  A
C1632     Br1633   1.927       .  S
C1637      C1638   1.412   1_565  A
C1637      C1642   1.405       .  A
C1637     Br1644   1.936       .  S
C1638      C1639   1.402   1_655  A
C1639      C1640   1.410       .  A
C1639     Br1646   1.931       .  S
C1640      C1641   1.425   1_445  A
C1640     Br1645   1.932       .  S
C1641      C1642   1.412       .  A
C1642     Br1643   1.933       .  S
C1647      C1648   1.400   1_455  A
C1647     Br1654   1.935       .  S
C1648      C1649   1.402       .  A
C1649     Br1656   1.932       .  S
C1650      C1651   1.426       .  A
C1650     Br1655   1.937   1_545  S
C1651      C1652   1.431   1_655  A
C1652     Br1653   1.937       .  S
C1657      C1658   1.435       .  A
C1657      C1662   1.411       .  A
C1657     Br1664   1.939       .  S
C1658      C1659   1.426       .  A
C1659      C1660   1.415       .  A
C1659     Br1666   1.936       .  S
C1660      C1661   1.408       .  A
C1660     Br1665   1.934       .  S
C1661      C1662   1.400       .  A
C1662     Br1663   1.937       .  S
C1667      C1668   1.405       .  A
C1667      C1672   1.408       .  A
C1667     Br1674   1.933       .  S
C1668      C1669   1.410       .  A
C1669      C1670   1.412       .  A
C1669     Br1676   1.924       .  S
C1670      C1671   1.416       .  A
C1670     Br1675   1.933       .  S
C1671      C1672   1.422       .  A
C1672     Br1673   1.936       .  S
C1677      C1678   1.402       .  A
C1677      C1682   1.411       .  A
C1677     Br1684   1.933       .  S
C1678      C1679   1.407       .  A
C1679      C1680   1.412       .  A
C1679     Br1686   1.934       .  S
C1680      C1681   1.423       .  A
C1680     Br1685   1.932       .  S
C1681      C1682   1.428       .  A
C1682     Br1683   1.938       .  S
C1687      C1688   1.413       .  A
C1687      C1692   1.411       .  A
C1687     Br1694   1.934       .  S
C1688      C1689   1.412       .  A
C1689      C1690   1.410       .  A
C1689     Br1696   1.934       .  S
C1690      C1691   1.416       .  A
C1690     Br1695   1.935       .  S
C1691      C1692   1.417       .  A
C1692     Br1693   1.933       .  S
