geometry optimzed in LAMMPS
_audit_creation_date              2020-12-01 
_audit_creation_method            'lammps2cif' 
_symmetry_space_group_name_H-M    'P1' 
_symmetry_Int_Tables_number       1 
_symmetry_cell_setting            triclinic 
loop_ 
_symmetry_equiv_pos_as_xyz 
  x,y,z 
_cell_length_a                    34.8695532 
_cell_length_b                    34.80185743799201 
_cell_length_c                    34.56418628661082 
_cell_angle_alpha                 90.07266485745696 
_cell_angle_beta                  90.06142513591645 
_cell_angle_gamma                 89.76314828411049 
loop_ 
_atom_site_label 
_atom_site_type_symbol 
_atom_site_fract_x 
_atom_site_fract_y 
_atom_site_fract_z 
_atom_site_charge 
O1          O  0.23081705  0.04244088  0.51066155    -0.82200
C2          C  0.16678202  0.03005111  0.36022779     0.97100
O3          O  0.14916517  0.02912513  0.39198135    -0.71300
O4          O  0.17605575  0.97516343  0.43675077    -0.74900
Al5        Al  0.16613655  0.02805877  0.44421054     1.49000
C6          C  0.19839182  0.95561821  0.45768933     0.92400
O7          O  0.27590069  0.99820316  0.41865424    -0.81100
O8          O  0.25180534  0.10806936  0.43049445    -0.74700
Al9        Al  0.25178319  0.02077026  0.46340104     1.90100
O10         O  0.27095917  0.04895044  0.38142510    -0.73800
O11         O  0.18036681  0.10695264  0.40501369    -0.73600
O12         O  0.20001964  0.04388524  0.35828787    -0.79300
O13         O  0.15089392  0.07898568  0.45302171    -0.77500
O14         O  0.21429183  0.04114140  0.43479108    -1.13600
O15         O  0.17176320  0.02421225  0.49876322    -0.72800
C16         C  0.19656514  0.03731520  0.52177115     0.97900
C17         C  0.28523872  0.01612742  0.38815302     0.94300
Al18       Al  0.22485839  0.07428041  0.39698664     1.55600
O19         O  0.22723955  0.97161097  0.47284980    -0.77400
C20         C  0.15538449  0.10776806  0.43152903     0.98500
C21         C  0.28039727  0.09862791  0.45084376     0.93300
O22         O  0.28505419  0.06421038  0.46111538    -0.82800
O23         O  0.96326364  0.02550958  0.24414178    -0.82200
C24         C  0.96542900  0.87963422  0.31716936     0.97100
O25         O  0.97291421  0.91185356  0.33184169    -0.71300
O26         O  0.02873402  0.94935521  0.29910503    -0.74900
Al27       Al  0.97771915  0.96243135  0.31170746     1.49000
C28         C  0.04805148  0.96813643  0.27498821     0.92400
O29         O  0.99880107  0.93046394  0.20218359    -0.81100
O30         O  0.89191549  0.95240983  0.23003826    -0.74700
Al31       Al  0.98087507  0.97689821  0.22462223     1.90100
O32         O  0.94572798  0.89709370  0.21050854    -0.73800
O33         O  0.89505625  0.93054233  0.30374977    -0.73600
O34         O  0.95115483  0.87718622  0.28376753    -0.79300
O35         O  0.92888283  0.97652928  0.32934845    -0.77500
O36         O  0.96078489  0.95190298  0.26463557    -1.13600
O37         O  0.98585310  0.01612266  0.30269296    -0.72800
C38         C  0.97105916  0.03802392  0.27759752     0.97900
C39         C  0.97835470  0.90132925  0.19496751     0.94300
Al40       Al  0.92394794  0.91729638  0.25749614     1.55600
O41         O  0.03142218  0.98395185  0.24658575    -0.77400
C42         C  0.89889384  0.95676505  0.32897039     0.98500
C43         C  0.90140243  0.96997622  0.19957918     0.93300
O44         O  0.93624693  0.97612297  0.19299832    -0.82800
O45         O  0.97688896  0.27749332  0.41379155    -0.82200
C46         C  0.86622267  0.16431203  0.45270692     0.97100
O47         O  0.86511966  0.18662610  0.42402464    -0.71300
O48         O  0.87100412  0.25972353  0.44449280    -0.74900
Al49       Al  0.89811828  0.22835440  0.40869441     1.49000
C50         C  0.88422180  0.28807983  0.46296612     0.92400
O51         O  0.95498366  0.24395541  0.51567888    -0.81100
O52         O  0.99891321  0.17383442  0.44268439    -0.74700
Al53       Al  0.96357415  0.25786434  0.46292918     1.90100
O54         O  0.95706728  0.18144205  0.50877955    -0.73800
O55         O  0.93940410  0.14967801  0.40521877    -0.73600
O56         O  0.89637322  0.16064909  0.47213504    -0.79300
O57         O  0.92098615  0.19801232  0.36876577    -0.77500
O58         O  0.93634439  0.21894646  0.44265746    -1.13600
O59         O  0.92145632  0.27226286  0.38494437    -0.72800
C60         C  0.95461607  0.28644722  0.38655363     0.97900
C61         C  0.95735066  0.21082804  0.53008893     0.94300
Al62       Al  0.94684934  0.17069744  0.45600621     1.55600
O63         O  0.92003188  0.29170448  0.46771593    -0.77400
C64         C  0.93389896  0.16427524  0.37217691     0.98500
C65         C  0.02315109  0.19902310  0.45131369     0.93300
O66         O  0.01271387  0.23196217  0.46256057    -0.82800
O67         O  0.06415422  0.01418981  0.75959804    -0.82200
C68         C  0.01046106  0.12959959  0.65611819     0.97100
O69         O  0.04039932  0.13235850  0.67674617    -0.71300
O70         O  0.02573766  0.11943908  0.75032626    -0.74900
Al71       Al  0.06153475  0.09740706  0.71591262     1.49000
C72         C  0.01010583  0.10364555  0.77903713     0.92400
O73         O  0.96076116  0.03517658  0.73295296    -0.81100
O74         O  0.03413126  0.99854534  0.65659674    -0.74700
Al75       Al  0.01379211  0.02684777  0.74365249     1.90100
O76         O  0.96559527  0.03349460  0.66980780    -0.73800
O77         O  0.06488627  0.06218220  0.63385584    -0.73600
O78         O  0.99538096  0.09742026  0.65130094    -0.79300
O79         O  0.10141833  0.07972533  0.68238689    -0.77500
O80         O  0.03065384  0.05754479  0.70555510    -1.13600
O81         O  0.08902015  0.07190548  0.75755619    -0.72800
C82         C  0.08987180  0.03754974  0.76965605     0.97900
C83         C  0.94553710  0.03179352  0.70011547     0.94300
Al84       Al  0.01634025  0.04890035  0.65713996     1.55600
O85         O  0.00927983  0.06737895  0.78168938    -0.77400
C86         C  0.09781044  0.06863535  0.64785317     0.98500
C87         C  0.02428472  0.97222698  0.67911434     0.93300
O88         O  0.01365633  0.97962096  0.71333309    -0.82800
O89         O  0.71611788  0.92987549  0.50545991    -0.82200
C90         C  0.82344203  0.97664957  0.61869212     0.97100
O91         O  0.80329865  0.94642597  0.62206146    -0.71300
O92         O  0.73154438  0.96489075  0.61086067    -0.74900
Al93       Al  0.76257242  0.92706200  0.58771655     1.49000
C94         C  0.70518993  0.98465426  0.59589375     0.92400
O95         O  0.75428123  0.02954806  0.52473764    -0.81100
O96         O  0.81991406  0.94423853  0.48869690    -0.74700
Al97       Al  0.73787551  0.97784858  0.51744195     1.90100
O98         O  0.81515909  0.01739441  0.51652080    -0.73800
O99         O  0.84379925  0.91905460  0.55589341    -0.73600
O100        O  0.82976424  0.99063097  0.58572532    -0.79300
O101        O  0.79308520  0.88483250  0.56923387    -0.77500
O102        O  0.77427551  0.95727145  0.54765921    -1.13600
O103        O  0.71874409  0.90266780  0.56240671    -0.72800
C104        C  0.70470266  0.90450039  0.52847615     0.97900
C105        C  0.78724826  0.04057998  0.51532966     0.94300
Al106      Al  0.82302952  0.96702029  0.53780489     1.55600
O107        O  0.70224958  0.98723119  0.55941359    -0.77400
C108        C  0.82822152  0.88680430  0.56078478     0.98500
C109        C  0.79926534  0.95732794  0.46180104     0.93300
O110        O  0.76725451  0.97332323  0.46919070    -0.82800
O111        O  0.96709859  0.75733507  0.53108169    -0.82200
C112        C  0.11234447  0.82781963  0.50490030     0.97100
O113        O  0.07925853  0.84043965  0.49821908    -0.71300
O114        O  0.03231071  0.80692655  0.45189189    -0.74900
Al115      Al  0.02886350  0.82266363  0.50420809     1.49000
C116        C  0.01002019  0.78293569  0.43700857     0.92400
O117        O  0.05690969  0.71174367  0.48418680    -0.81100
O118        O  0.05126875  0.74200241  0.59279265    -0.74700
Al119      Al  0.01294569  0.73614341  0.50750504     1.90100
O120        O  0.09846859  0.72492371  0.53095386    -0.73800
O121        O  0.06918921  0.81456740  0.58631818    -0.73600
O122        O  0.11709631  0.79798109  0.52498326    -0.79300
O123        O  0.02471243  0.84449001  0.55327396    -0.77500
O124        O  0.04111617  0.77650460  0.52264330    -1.13600
O125        O  0.97435078  0.81524404  0.50683256    -0.72800
C126        C  0.95405316  0.79074568  0.52431767     0.97900
C127        C  0.08906881  0.70643804  0.50088325     0.94300
Al128      Al  0.08049584  0.77035640  0.55575466     1.55600
O129        O  0.99751387  0.75554580  0.45714707    -0.77400
C130        C  0.04447685  0.84088912  0.58357254     0.98500
C131        C  0.03093402  0.71291220  0.58635818     0.93300
O132        O  0.01923753  0.70600468  0.55272189    -0.82800
O133        O  0.51682837  0.24481679  0.03048319    -0.82200
C134        C  0.37550568  0.16457690  0.01548761     0.97100
O135        O  0.40947955  0.15363857  0.01103583    -0.71300
O136        O  0.44793018  0.18931533  0.95755725    -0.74900
Al137      Al  0.45805156  0.17740019  0.00963064     1.49000
C138        C  0.46531029  0.21495239  0.93877402     0.92400
O139        O  0.42526157  0.28684328  0.98616058    -0.81100
O140        O  0.43176185  0.25955227  0.09420567    -0.74700
Al141      Al  0.46967721  0.26410628  0.00822237     1.90100
O142        O  0.38307806  0.27250164  0.03156250    -0.73800
O143        O  0.41820201  0.18487969  0.09003145    -0.73600
O144        O  0.36876083  0.19810726  0.02761506    -0.79300
O145        O  0.46891879  0.16218924  0.06020628    -0.77500
O146        O  0.44337411  0.22361242  0.02536718    -1.13600
O147        O  0.51161121  0.18811459  0.00425678    -0.72800
C148        C  0.53076185  0.21196899  0.02353221     0.97900
C149        C  0.39249308  0.29077890  0.00132366     0.94300
Al150      Al  0.40389461  0.22862930  0.05806436     1.55600
O151        O  0.48040754  0.24296517  0.95668865    -0.77400
C152        C  0.44684296  0.16231110  0.08913426     0.98500
C153        C  0.45263293  0.28827786  0.08776309     0.93300
O154        O  0.46486448  0.29481856  0.05413497    -0.82800
O155        O  0.25305299  0.95277125  0.00465671    -0.82200
C156        C  0.31802170  0.97300866  0.85437898     0.97100
O157        O  0.33066143  0.98311870  0.88672703    -0.71300
O158        O  0.29841789  0.02993949  0.93337561    -0.74900
Al159      Al  0.31546482  0.97855801  0.93842489     1.49000
C160        C  0.27816060  0.04492157  0.95910699     0.92400
O161        O  0.20550034  0.99763404  0.91492302    -0.81100
O162        O  0.23435909  0.88932921  0.92401428    -0.74700
Al163      Al  0.23036001  0.97521931  0.95897127     1.90100
O164        O  0.21653200  0.94981243  0.87350710    -0.73800
O165        O  0.30639161  0.89311026  0.90442301    -0.73600
O166        O  0.28923823  0.95140765  0.85196181    -0.79300
O167        O  0.33818018  0.93106933  0.94321958    -0.77500
O168        O  0.26949531  0.95895418  0.92933649    -1.13600
O169        O  0.31047926  0.97685204  0.99403493    -0.72800
C170        C  0.28684239  0.96015610  0.01614207     0.97900
C171        C  0.19937375  0.98083234  0.88275682     0.94300
Al172      Al  0.26208975  0.92402776  0.89178512     1.55600
O173        O  0.25120388  0.02553341  0.97355966    -0.77400
C174        C  0.33395920  0.89885572  0.92741997     0.98500
C175        C  0.20580561  0.89604734  0.94505970     0.93300
O176        O  0.19884941  0.93024725  0.95483511    -0.82800
O177        O  0.41714999  0.98356580  0.25929325    -0.82200
C178        C  0.46713573  0.86419117  0.15924958     0.97100
O179        O  0.43481181  0.86508816  0.17603491    -0.71300
O180        O  0.45057544  0.87708752  0.24943533    -0.74900
Al181      Al  0.41609909  0.90125668  0.21525573     1.49000
C182        C  0.46887461  0.89188812  0.27719236     0.92400
O183        O  0.51970502  0.96140222  0.23251653    -0.81100
O184        O  0.44761991  0.99557306  0.15411311    -0.74700
Al185      Al  0.46685526  0.96960931  0.24279216     1.90100
O186        O  0.51555646  0.96090643  0.16955575    -0.73800
O187        O  0.41765217  0.93027434  0.13261263    -0.73600
O188        O  0.48588257  0.89465373  0.15516871    -0.79300
O189        O  0.37783172  0.92260043  0.18103270    -0.77500
O190        O  0.44948318  0.93881254  0.20519497    -1.13600
O191        O  0.39041217  0.92693750  0.25756882    -0.72800
C192        C  0.39114134  0.96109870  0.26988735     0.97900
C193        C  0.53516987  0.96440162  0.19993444     0.94300
Al194      Al  0.46530690  0.94466833  0.15702828     1.55600
O195        O  0.47162593  0.92819150  0.28038082    -0.77400
C196        C  0.38370558  0.92821739  0.14536988     0.98500
C197        C  0.45705710  0.02258433  0.17635639     0.93300
O198        O  0.46649194  0.01608597  0.21125679    -0.82800
O199        O  0.76537483  0.08723824  0.01667773    -0.82200
C200        C  0.66124947  0.02277359  0.12450651     0.97100
O201        O  0.68016644  0.05348224  0.13080759    -0.71300
O202        O  0.75341913  0.04012756  0.11674124    -0.74900
Al203      Al  0.71980874  0.07844906  0.09862787     1.49000
C204        C  0.77987720  0.02316384  0.09860566     0.92400
O205        O  0.72996880  0.98417127  0.02256970    -0.81100
O206        O  0.66113826  0.07137019  0.00298507    -0.74700
Al207      Al  0.74469812  0.03736325  0.02214120     1.90100
O208        O  0.66856675  0.99454476  0.01722622    -0.73800
O209        O  0.63772374  0.08424762  0.07246820    -0.73600
O210        O  0.65684493  0.01073480  0.09041905    -0.79300
O211        O  0.68713898  0.12071612  0.08375144    -0.77500
O212        O  0.70883889  0.05202340  0.05591827    -1.13600
O213        O  0.76198700  0.10746764  0.07667684    -0.72800
C214        C  0.77563852  0.11014597  0.04287026     0.97900
C215        C  0.69697254  0.97226688  0.01409774     0.94300
Al216      Al  0.66034807  0.04106691  0.04650507     1.55600
O217        O  0.78155977  0.02394524  0.06189163    -0.77400
C218        C  0.65175186  0.11718483  0.07709964     0.98500
C219        C  0.68102005  0.06605783  0.97316381     0.93300
O220        O  0.71325842  0.04883808  0.97583139    -0.82800
O221        O  0.51251923  0.73084348  0.91253033    -0.82200
C222        C  0.62737591  0.83335465  0.96703446     0.97100
O223        O  0.62794095  0.81471513  0.93546173    -0.71300
O224        O  0.61676287  0.74033180  0.95339238    -0.74900
Al225      Al  0.59380053  0.77356683  0.91701244     1.49000
C226        C  0.60077437  0.71214673  0.96989895     0.92400
O227        O  0.52654381  0.75520442  0.01785119    -0.81100
O228        O  0.49909546  0.83519937  0.94807315    -0.74700
Al229      Al  0.52294753  0.74617430  0.96369082     1.90100
O230        O  0.53103702  0.81773051  0.01679417    -0.73800
O231        O  0.56374869  0.85504348  0.91843804    -0.73600
O232        O  0.59806831  0.83220638  0.98791085    -0.79300
O233        O  0.57286914  0.80655336  0.87823104    -0.77500
O234        O  0.55476360  0.78343772  0.94928318    -1.13600
O235        O  0.57059352  0.73008712  0.89000788    -0.72800
C236        C  0.53614528  0.71901178  0.88798204     0.97900
C237        C  0.52404472  0.78707272  0.03471018     0.94300
Al238      Al  0.54874345  0.83094090  0.96646017     1.55600
O239        O  0.56436744  0.70917831  0.97053731    -0.77400
C240        C  0.56549744  0.84170046  0.88430197     0.98500
C241        C  0.47151973  0.81270947  0.95243484     0.93300
O242        O  0.47690510  0.77742800  0.95992090    -0.82800
O243        O  0.53969918  0.98184328  0.75696558    -0.82200
C244        C  0.50723122  0.13338241  0.81075088     0.97100
O245        O  0.50023217  0.10158971  0.82640476    -0.71300
O246        O  0.45880031  0.04763007  0.79834514    -0.74900
Al247      Al  0.51007138  0.04945692  0.81606659     1.49000
C248        C  0.44500905  0.02429664  0.77440956     0.92400
O249        O  0.49407424  0.06586528  0.70204311    -0.81100
O250        O  0.60128492  0.06397197  0.73722077    -0.74700
Al251      Al  0.51689586  0.02492966  0.73106404     1.90100
O252        O  0.54030021  0.10798942  0.71189045    -0.73800
O253        O  0.59057419  0.09222960  0.80781041    -0.73600
O254        O  0.52956976  0.13534321  0.78212379    -0.79300
O255        O  0.55767534  0.05079146  0.84169827    -0.77500
O256        O  0.52998384  0.05708848  0.76949908    -1.13600
O257        O  0.51635808  0.99505949  0.81474310    -0.72800
C258        C  0.53313490  0.97236963  0.79167656     0.97900
C259        C  0.51112864  0.09687824  0.69335534     0.94300
Al260      Al  0.56254599  0.09618094  0.76051317     1.55600
O261        O  0.46643716  0.01040246  0.74873561    -0.77400
C262        C  0.58603897  0.07260260  0.83798688     0.98500
C263        C  0.59555827  0.04215743  0.70866036     0.93300
O264        O  0.56245810  0.02947407  0.70261664    -0.82800
O265        O  0.02754300  0.52832748  0.23883576    -0.82200
C266        C  0.02068277  0.38707018  0.15727814     0.97100
O267        O  0.01621291  0.42035184  0.14335408    -0.71300
O268        O  0.96209670  0.45925423  0.17675295    -0.74900
Al269      Al  0.01312689  0.47059380  0.16650069     1.49000
C270        C  0.94175282  0.47365557  0.20296151     0.92400
O271        O  0.98793506  0.43258223  0.27374657    -0.81100
O272        O  0.09619205  0.45079757  0.24674933    -0.74700
Al273      Al  0.00796089  0.47941463  0.25430113     1.90100
O274        O  0.04023389  0.39787063  0.26461463    -0.73800
O275        O  0.09223084  0.43182302  0.17247531    -0.73600
O276        O  0.03320532  0.38236933  0.19103639    -0.79300
O277        O  0.06259766  0.48282972  0.15131892    -0.77500
O278        O  0.02793165  0.45610340  0.21306613    -1.13600
O279        O  0.00745603  0.52479143  0.17888043    -0.72800
C280        C  0.02237927  0.54382589  0.20627960     0.97900
C281        C  0.00778583  0.40283629  0.28032652     0.94300
Al282      Al  0.06272270  0.41887423  0.21843202     1.55600
O283        O  0.95733554  0.48907175  0.23220435    -0.77400
C284        C  0.09045496  0.46014988  0.14946750     0.98500
C285        C  0.08766075  0.46770596  0.27776261     0.93300
O286        O  0.05293775  0.47493967  0.28548488    -0.82800
O287        O  0.01462328  0.26114030  0.94554175    -0.82200
C288        C  0.86623611  0.32928922  0.96817297     0.97100
O289        O  0.89879531  0.34374300  0.97317237    -0.71300
O290        O  0.94907045  0.31637096  0.02035788    -0.74900
Al291      Al  0.95001672  0.32720466  0.96656704     1.49000
C292        C  0.97111872  0.29300583  0.03691253     0.92400
O293        O  0.92687063  0.21716922  0.99722434    -0.81100
O294        O  0.92807902  0.23751093  0.88740849    -0.74700
Al295      Al  0.96933569  0.24071986  0.97079631     1.90100
O296        O  0.88244144  0.22610259  0.95246592    -0.73800
O297        O  0.90862433  0.30996213  0.88580722    -0.73600
O298        O  0.86250993  0.29817966  0.95018225    -0.79300
O299        O  0.95201561  0.34485510  0.91505654    -0.77500
O300        O  0.93925904  0.27901282  0.95286456    -1.13600
O301        O  0.00455728  0.32118610  0.96291765    -0.72800
C302        C  0.02642283  0.29540512  0.94938799     0.97900
C303        C  0.89345055  0.21098423  0.98396161     0.94300
Al304      Al  0.89913743  0.26873524  0.92177280     1.55600
O305        O  0.98397661  0.26436103  0.01882142    -0.77400
C306        C  0.93231286  0.33733718  0.88542906     0.98500
C307        C  0.95088088  0.21044840  0.89451031     0.93300
O308        O  0.96398787  0.20665876  0.92813933    -0.82800
O309        O  0.26845197  0.42279851  0.97148841    -0.82200
C310        C  0.16501363  0.47939053  0.85865660     0.97100
O311        O  0.18419372  0.44853391  0.85571557    -0.71300
O312        O  0.25697225  0.46137396  0.86805126    -0.74900
Al313      Al  0.22235294  0.42595587  0.88960557     1.49000
C314        C  0.28441934  0.47890717  0.88388948     0.92400
O315        O  0.23731606  0.52659051  0.95691287    -0.81100
O316        O  0.16484818  0.44802093  0.98873668    -0.74700
Al317      Al  0.25006081  0.47305876  0.96152748     1.90100
O318        O  0.17523198  0.51968486  0.96089579    -0.73800
O319        O  0.14040160  0.42344680  0.92172502    -0.73600
O320        O  0.15921680  0.49421327  0.89136773    -0.79300
O321        O  0.18866605  0.38605718  0.90666830    -0.77500
O322        O  0.21239540  0.45644715  0.93030674    -1.13600
O323        O  0.26300023  0.39744259  0.91372020    -0.72800
C324        C  0.27673386  0.39681838  0.94746673     0.97900
C325        C  0.20469746  0.54014452  0.96490935     0.94300
Al326      Al  0.16419417  0.47020161  0.93955800     1.55600
O327        O  0.28643549  0.48097008  0.92037675    -0.77400
C328        C  0.15393731  0.39023754  0.91590406     0.98500
C329        C  0.18700519  0.45766476  0.01583123     0.93300
O330        O  0.22063250  0.46942370  0.00901231    -0.82800
O331        O  0.01276002  0.77340595  0.05917690    -0.82200
C332        C  0.12706562  0.66018943  0.03603936     0.97100
O333        O  0.12933437  0.68700010  0.06095071    -0.71300
O334        O  0.11764753  0.75695415  0.03247513    -0.74900
Al335      Al  0.09386512  0.72911404  0.07331992     1.49000
C336        C  0.10250253  0.77961746  0.00833761     0.92400
O337        O  0.03358978  0.71735313  0.96703596    -0.81100
O338        O  0.99710171  0.66816129  0.06154332    -0.74700
Al339      Al  0.02579170  0.74370722  0.01565468     1.90100
O340        O  0.02819409  0.66006026  0.99109532    -0.73800
O341        O  0.06217006  0.64958605  0.09286832    -0.73600
O342        O  0.09532230  0.65090873  0.02150967    -0.79300
O343        O  0.07466844  0.70479712  0.11949305    -0.77500
O344        O  0.05568525  0.71179611  0.04331383    -1.13600
O345        O  0.06663886  0.77354131  0.09117379    -0.72800
C346        C  0.03268563  0.78566540  0.08673078     0.97900
C347        C  0.02585738  0.68216116  0.96272994     0.94300
Al348      Al  0.04668579  0.66171086  0.04179987     1.55600
O349        O  0.06685590  0.77805314  0.00149478    -0.77400
C350        C  0.06578834  0.66996028  0.12258374     0.98500
C351        C  0.97038783  0.68863322  0.04783121     0.93300
O352        O  0.97819635  0.71624863  0.02533302    -0.82800
O353        O  0.92735336  0.50953987  0.70444934    -0.82200
C354        C  0.97647708  0.61112851  0.82149113     0.97100
O355        O  0.94569498  0.61538878  0.80226358    -0.71300
O356        O  0.96037080  0.61318231  0.72751457    -0.74900
Al357      Al  0.92549990  0.58599808  0.75868060     1.49000
C358        C  0.97782869  0.60126466  0.69798987     0.92400
O359        O  0.02813143  0.52805077  0.73836600    -0.81100
O360        O  0.94868898  0.48443011  0.80723492    -0.74700
Al361      Al  0.97598299  0.52028328  0.72432881     1.90100
O362        O  0.02068506  0.51285861  0.79903702    -0.73800
O363        O  0.92502992  0.54895817  0.83756230    -0.73600
O364        O  0.99544530  0.58038142  0.81944571    -0.79300
O365        O  0.88612820  0.56333804  0.78999833    -0.77500
O366        O  0.95736589  0.54621492  0.76458046    -1.13600
O367        O  0.89926009  0.56517677  0.71414569    -0.72800
C368        C  0.90095658  0.53299047  0.69709047     0.97900
C369        C  0.04212695  0.51829394  0.77031616     0.94300
Al370      Al  0.97130549  0.53278045  0.81181280     1.55600
O371        O  0.98201460  0.56551134  0.69167523    -0.77400
C372        C  0.89154205  0.55545850  0.82522149     0.98500
C373        C  0.95786461  0.45968988  0.78230396     0.93300
O374        O  0.97292767  0.46968070  0.75017763    -0.82800
O375        O  0.76620995  0.52840747  0.96612976    -0.82200
C376        C  0.81789261  0.51520342  0.11788161     0.97100
O377        O  0.82280012  0.49912012  0.08545302    -0.71300
O378        O  0.81061130  0.47562024  0.01502343    -0.74900
Al379      Al  0.82111646  0.52402098  0.03686183     1.49000
C380        C  0.78146034  0.45475477  0.01370174     0.92400
O381        O  0.69952452  0.51385339  0.05528384    -0.81100
O382        O  0.72351803  0.59917037  0.06038108    -0.74700
Al383      Al  0.73577802  0.52237948  0.01360976     1.90100
O384        O  0.72842108  0.53635359  0.10708946    -0.73800
O385        O  0.79828137  0.60921843  0.06705607    -0.73600
O386        O  0.80127112  0.54758830  0.11944791    -0.79300
O387        O  0.84527533  0.56892466  0.05641178    -0.77500
O388        O  0.77310364  0.53910668  0.04483380    -1.13600
O389        O  0.82278808  0.54704307  0.98769577    -0.72800
C390        C  0.79943843  0.54236310  0.96012188     0.97900
C391        C  0.70142764  0.51787021  0.09174878     0.94300
Al392      Al  0.76355818  0.57045817  0.08486550     1.55600
O393        O  0.74867123  0.46900837  0.01858916    -0.77400
C394        C  0.83351276  0.60265121  0.06234072     0.98500
C395        C  0.70878025  0.59884876  0.02710903     0.93300
O396        O  0.71612529  0.57210031  0.00371410    -0.82800
O397        O  0.55559667  0.47713690  0.20007372    -0.82200
C398        C  0.52120433  0.37849352  0.32458792     0.97100
O399        O  0.53498489  0.37434486  0.29126662    -0.71300
O400        O  0.53580776  0.39236264  0.21814533    -0.74900
Al401      Al  0.56324013  0.41138439  0.26188468     1.49000
C402        C  0.50499054  0.40120564  0.20090844     0.92400
O403        O  0.46120735  0.48635348  0.25425708    -0.81100
O404        O  0.51250803  0.51493232  0.31219947    -0.74700
Al405      Al  0.51107770  0.47846551  0.23182571     1.90100
O406        O  0.46388627  0.45382721  0.30841429    -0.73800
O407        O  0.56789321  0.47035673  0.33528880    -0.73600
O408        O  0.51735196  0.41126560  0.33901941    -0.79300
O409        O  0.59721862  0.42344771  0.30445312    -0.77500
O410        O  0.53056152  0.45036485  0.27088859    -1.13600
O411        O  0.59670030  0.44108203  0.23064611    -0.72800
C412        C  0.58913598  0.46408262  0.20365170     0.97900
C413        C  0.44461760  0.47100215  0.28271969     0.94300
Al414      Al  0.51669353  0.46151957  0.31925904     1.55600
O415        O  0.48998289  0.43391612  0.20659457    -0.77400
C416        C  0.59760943  0.45040443  0.32912783     0.98500
C417        C  0.52301316  0.53850997  0.28694243     0.93300
O418        O  0.53003967  0.52694793  0.25286766    -0.82800
O419        O  0.47522033  0.71956558  0.46389063    -0.82200
C420        C  0.63019063  0.67570700  0.46103700     0.97100
O421        O  0.60056942  0.67063253  0.48090975    -0.71300
O422        O  0.53403324  0.67838596  0.51246526    -0.74900
Al423      Al  0.55070588  0.67057875  0.46082503     1.49000
C424        C  0.52780298  0.70694187  0.53388985     0.92400
O425        O  0.55935714  0.79296968  0.47458591    -0.81100
O426        O  0.56323264  0.77634974  0.39226259    -0.74700
Al427      Al  0.52018100  0.75355952  0.46710187     1.90100
O428        O  0.61275740  0.76603232  0.45284628    -0.73800
O429        O  0.57054330  0.70248034  0.37418540    -0.73600
O430        O  0.62834863  0.69517670  0.43018293    -0.79300
O431        O  0.56614760  0.65125652  0.41094650    -0.77500
O432        O  0.55346283  0.71949482  0.44785917    -1.13600
O433        O  0.50002859  0.66529045  0.44319220    -0.72800
C434        C  0.47116038  0.68508842  0.45227351     0.97900
C435        C  0.59585067  0.79155587  0.47253385     0.94300
Al436      Al  0.59062401  0.73394246  0.41509189     1.55600
O437        O  0.52841585  0.74040887  0.52022398    -0.77400
C438        C  0.56428730  0.66693210  0.37789442     0.98500
C439        C  0.52803202  0.78484626  0.39182778     0.93300
O440        O  0.50611141  0.77183749  0.41745583    -0.82800
O441        O  0.21407713  0.56638365  0.48336085    -0.82200
C442        C  0.31697002  0.51544685  0.36639427     0.97100
O443        O  0.29991047  0.54776017  0.36709991    -0.71300
O444        O  0.22622101  0.53667877  0.37749705    -0.74900
Al445      Al  0.26156935  0.56858300  0.40264947     1.49000
C446        C  0.19858066  0.51804087  0.39157351     0.92400
O447        O  0.24185039  0.46353703  0.46180501    -0.81100
O448        O  0.31920956  0.53603888  0.49688513    -0.74700
Al449      Al  0.23158241  0.51683164  0.46984674     1.90100
O450        O  0.30406893  0.46717172  0.46535622    -0.73800
O451        O  0.34247272  0.56152919  0.42989750    -0.73600
O452        O  0.31790656  0.49504466  0.39652866    -0.79300
O453        O  0.29746066  0.60499797  0.42514328    -0.77500
O454        O  0.26957084  0.53389367  0.43988796    -1.13600
O455        O  0.22065614  0.59568968  0.42825010    -0.72800
C456        C  0.20493559  0.59327960  0.46106503     0.97900
C457        C  0.27384427  0.44788514  0.46721458     0.94300
Al458      Al  0.31677948  0.51635750  0.44654589     1.55600
O459        O  0.19577499  0.51254896  0.42770133    -0.77400
C460        C  0.33234558  0.59636791  0.43081815     0.98500
C461        C  0.29562348  0.53010215  0.52381855     0.93300
O462        O  0.26181035  0.51829633  0.51713960    -0.82800
O463        O  0.46032932  0.47397667  0.73079711    -0.82200
C464        C  0.46989687  0.62207256  0.65738491     0.97100
O465        O  0.47492034  0.58920215  0.64333903    -0.71300
O466        O  0.52682650  0.54578655  0.67525137    -0.74900
Al467      Al  0.47450084  0.53859606  0.66331500     1.49000
C468        C  0.54572744  0.52924888  0.70156239     0.92400
O469        O  0.49869652  0.56718205  0.77660520    -0.81100
O470        O  0.39244873  0.55884469  0.74945151    -0.74700
Al471      Al  0.47842138  0.52253524  0.75135185     1.90100
O472        O  0.45263279  0.60799413  0.76330478    -0.73800
O473        O  0.39362733  0.57664102  0.67628513    -0.73600
O474        O  0.45483056  0.62608035  0.69018915    -0.79300
O475        O  0.42386038  0.53019230  0.64580509    -0.77500
O476        O  0.45959320  0.55009111  0.71132057    -1.13600
O477        O  0.47783956  0.48494408  0.67114495    -0.72800
C478        C  0.46765775  0.46183359  0.69707290     0.97900
C479        C  0.48300469  0.59962008  0.78152870     0.94300
Al480      Al  0.42640193  0.58884203  0.71920925     1.55600
O481        O  0.52879932  0.51457405  0.73016282    -0.77400
C482        C  0.39395296  0.54990110  0.65150872     0.98500
C483        C  0.39952388  0.53620203  0.77684332     0.93300
O484        O  0.43313037  0.52394234  0.78211461    -0.82800
O485        O  0.47683728  0.22214378  0.55913045    -0.82200
C486        C  0.36167812  0.33118851  0.52336816     0.97100
O487        O  0.36228608  0.31084506  0.55381891    -0.71300
O488        O  0.37164143  0.23939149  0.53223212    -0.74900
Al489      Al  0.39718246  0.26968288  0.56873665     1.49000
C490        C  0.38478929  0.21413135  0.50973818     0.92400
O491        O  0.45394949  0.26454816  0.46084979    -0.81100
O492        O  0.49118551  0.32943440  0.54513703    -0.74700
Al493      Al  0.46299465  0.24636675  0.51222510     1.90100
O494        O  0.46019653  0.32546869  0.47397143    -0.73800
O495        O  0.42583042  0.35059911  0.57473398    -0.73600
O496        O  0.39193586  0.33643164  0.50417437    -0.79300
O497        O  0.42030250  0.29880591  0.60982585    -0.77500
O498        O  0.43400443  0.28203978  0.53523915    -1.13600
O499        O  0.42233513  0.22580895  0.58961980    -0.72800
C500        C  0.45487035  0.21068794  0.58556709     0.97900
C501        C  0.46156482  0.29817210  0.45021778     0.94300
Al502      Al  0.44143814  0.33129048  0.52524017     1.55600
O503        O  0.42066099  0.21151524  0.50362417    -0.77400
C504        C  0.42768972  0.33413160  0.60718620     0.98500
C505        C  0.51764684  0.30822534  0.53236012     0.93300
O506        O  0.51048065  0.27602792  0.51645356    -0.82800
O507        O  0.73083811  0.46333799  0.46652794    -0.82200
C508        C  0.66750393  0.48004766  0.61707850     0.97100
O509        O  0.65427815  0.49092703  0.58522110    -0.71300
O510        O  0.68803841  0.53902488  0.54083512    -0.74900
Al511      Al  0.66932088  0.48832889  0.53357829     1.49000
C512        C  0.71228446  0.55382703  0.51861481     0.92400
O513        O  0.77999556  0.50050710  0.55800136    -0.81100
O514        O  0.74714779  0.39455994  0.54439713    -0.74700
Al515      Al  0.75443227  0.48164967  0.51338942     1.90100
O516        O  0.76719547  0.45210317  0.59761653    -0.73800
O517        O  0.67465545  0.40200859  0.56471995    -0.73600
O518        O  0.69549558  0.45729628  0.61849795    -0.79300
O519        O  0.64440403  0.44135228  0.52601193    -0.77500
O520        O  0.71460232  0.46624698  0.54197644    -1.13600
O521        O  0.67479093  0.49024588  0.47870374    -0.72800
C522        C  0.69770371  0.47391840  0.45554193     0.97900
C523        C  0.78492252  0.48294576  0.58975866     0.94300
Al524      Al  0.72066427  0.42962710  0.57806118     1.55600
O525        O  0.73728056  0.53293063  0.50286430    -0.77400
C526        C  0.64702595  0.40905865  0.54193539     0.98500
C527        C  0.77598219  0.40151209  0.52379334     0.93300
O528        O  0.78324892  0.43566848  0.51507454    -0.82800
C529        C  0.61566008  0.34672013  0.55863448    -0.06200
C530        C  0.61645420  0.37973286  0.53479738    -0.00300
C531        C  0.58653195  0.38486199  0.50683068    -0.08800
C532        C  0.55786108  0.35689804  0.50415701    -0.06200
C533        C  0.55566613  0.32614860  0.52993825    -0.00300
C534        C  0.58483720  0.32052305  0.55752864    -0.08700
C535        C  0.58208863  0.28812666  0.58659312     0.61600
H536        H  0.63808115  0.34276981  0.57994025     0.12300
H537        H  0.53440012  0.36069559  0.48395766     0.12300
C538        C  0.58223207  0.42043411  0.48136682     0.61900
F539        F  0.61351117  0.28710734  0.61108425    -0.23300
F540        F  0.58005315  0.25337979  0.56725455    -0.20600
F541        F  0.54945140  0.29283450  0.60886206    -0.20300
F542        F  0.61470357  0.42554329  0.45928633    -0.20400
F543        F  0.57581267  0.45247958  0.50421453    -0.20700
F544        F  0.55154668  0.41772220  0.45605568    -0.23400
C545        C  0.43020662  0.40023238  0.69450239    -0.06200
C546        C  0.46367416  0.42083943  0.68538395    -0.00300
C547        C  0.48984255  0.40462354  0.65844766    -0.08800
C548        C  0.47787369  0.37399039  0.63529941    -0.06200
C549        C  0.44194676  0.35705658  0.64024728    -0.00300
C550        C  0.41959748  0.36726854  0.67285370    -0.08700
C551        C  0.38477270  0.34399567  0.68393739     0.61600
H552        H  0.41116306  0.41151441  0.71652337     0.12300
H553        H  0.49603301  0.36430283  0.61180331     0.12300
C554        C  0.53028113  0.41963694  0.65370496     0.61900
F555        F  0.36962586  0.35599812  0.71894019    -0.23300
F556        F  0.39505104  0.30571252  0.68746387    -0.20600
F557        F  0.35679088  0.34740552  0.65592344    -0.20300
F558        F  0.54489507  0.42875708  0.68961990    -0.20400
F559        F  0.53057997  0.45175118  0.63022696    -0.20700
F560        F  0.55413928  0.39213520  0.63740613    -0.23400
C561        C  0.60324938  0.48732220  0.70429176    -0.06200
C562        C  0.58750615  0.52366484  0.69606533    -0.00300
C563        C  0.60867598  0.54925646  0.67285635    -0.08800
C564        C  0.63882079  0.53461452  0.65067358    -0.06200
C565        C  0.64884958  0.49560168  0.65204993    -0.00300
C566        C  0.63338328  0.47217403  0.68157339    -0.08700
C567        C  0.64611869  0.43079103  0.68668822     0.61600
H568        H  0.58888038  0.46924765  0.72511247     0.12300
H569        H  0.65245337  0.55310020  0.62956952     0.12300
C570        C  0.59868737  0.59131445  0.66856926     0.61900
F571        F  0.62763431  0.41335004  0.71740290    -0.23300
F572        F  0.68511427  0.42956751  0.69386894    -0.20600
F573        F  0.63818391  0.41000916  0.65351807    -0.20300
F574        F  0.57286912  0.60348948  0.69639553    -0.20400
F575        F  0.58332029  0.59748144  0.63219466    -0.20700
F576        F  0.63156842  0.61306653  0.67261739    -0.23400
C577        C  0.32504371  0.50237458  0.58177721    -0.06200
C578        C  0.30982450  0.53487065  0.56347600    -0.00300
C579        C  0.31599810  0.57167599  0.57940458    -0.08800
C580        C  0.34041734  0.57511097  0.61169167    -0.06200
C581        C  0.35974350  0.54294580  0.62699773    -0.00300
C582        C  0.34947293  0.50565775  0.61391844    -0.08700
C583        C  0.36347059  0.46850683  0.63220345     0.61600
H584        H  0.31951487  0.47421218  0.56954641     0.12300
H585        H  0.34703834  0.60329744  0.62299234     0.12300
C586        C  0.29818141  0.60706102  0.56096034     0.61900
F587        F  0.33228290  0.44546335  0.64022190    -0.23300
F588        F  0.38281152  0.47397522  0.66657371    -0.20600
F589        F  0.38739602  0.44949426  0.60660969    -0.20300
F590        F  0.25888354  0.60238696  0.55834191    -0.20400
F591        F  0.31293721  0.61227757  0.52422781    -0.20700
F592        F  0.30531945  0.63992374  0.58233367    -0.23400
C593        C  0.27946853  0.40211426  0.51953137    -0.06200
C594        C  0.27756954  0.40769110  0.47944129    -0.00300
C595        C  0.29481550  0.38062189  0.45448759    -0.08800
C596        C  0.31963005  0.35300085  0.47043288    -0.06200
C597        C  0.32648156  0.35131819  0.51043854    -0.00300
C598        C  0.30391173  0.37415548  0.53569317    -0.08700
C599        C  0.30863595  0.37207955  0.57916828     0.61600
H600        H  0.26570753  0.42312754  0.53808194     0.12300
H601        H  0.33530247  0.33372968  0.45164623     0.12300
C602        C  0.28677735  0.38101591  0.41136898     0.61900
F603        F  0.28424495  0.39723956  0.59818859    -0.23300
F604        F  0.30049102  0.33533753  0.59184966    -0.20600
F605        F  0.34590219  0.38143280  0.58881885    -0.20300
F606        F  0.29119908  0.41739664  0.39635854    -0.20400
F607        F  0.24941559  0.36941144  0.40514745    -0.20700
F608        F  0.31104846  0.35643832  0.39141373    -0.23400
C609        C  0.67187364  0.65344952  0.51376494    -0.06200
C610        C  0.66540730  0.65545410  0.47371686    -0.00300
C611        C  0.68612038  0.63050984  0.44891349    -0.08800
C612        C  0.70700530  0.60004441  0.46553252    -0.06200
C613        C  0.70703229  0.59394050  0.50570042    -0.00300
C614        C  0.69266829  0.62307838  0.53029894    -0.08700
C615        C  0.69765874  0.62300069  0.57380182     0.61600
H616        H  0.65802754  0.67416930  0.53258453     0.12300
H617        H  0.71928374  0.57812397  0.44697187     0.14700
C618        C  0.68293891  0.63330470  0.40535366     0.61900
F619        F  0.71401457  0.65737914  0.58516883    -0.23300
F620        F  0.72125490  0.59357461  0.58642643    -0.20600
F621        F  0.66222488  0.61957035  0.59132449    -0.20300
F622        F  0.70714087  0.60757812  0.38682605    -0.20400
F623        F  0.69273196  0.66993246  0.39354262    -0.20700
F624        F  0.64576883  0.62529236  0.39427235    -0.23400
C625        C  0.40187018  0.68251287  0.43099513    -0.06200
C626        C  0.43292083  0.66578783  0.45114398    -0.00300
C627        C  0.42770060  0.62917632  0.46861288    -0.08800
C628        C  0.39279677  0.61023250  0.46363863    -0.06200
C629        C  0.36320709  0.62470442  0.44026716    -0.00300
C630        C  0.36693413  0.66231546  0.42487694    -0.08700
C631        C  0.33500872  0.68044441  0.40132049     0.61600
H632        H  0.40586247  0.71066341  0.41845417     0.12300
H633        H  0.38907069  0.58226653  0.47676360     0.12300
C634        C  0.45876933  0.60892195  0.49201805     0.61900
F635        F  0.34425691  0.71725971  0.38951013    -0.23300
F636        F  0.30200845  0.68267198  0.42338185    -0.20600
F637        F  0.32797327  0.65850383  0.36873035    -0.20300
F638        F  0.47319385  0.63349702  0.51956720    -0.20400
F639        F  0.48787486  0.59658088  0.46785374    -0.20700
F640        F  0.44499943  0.57698392  0.51134196    -0.23400
C641        C  0.47361960  0.69457806  0.57636966    -0.06200
C642        C  0.51337019  0.69940536  0.57331318    -0.00300
C643        C  0.53736706  0.68649047  0.60363880    -0.08800
C644        C  0.52100925  0.66531596  0.63418748    -0.06200
C645        C  0.48204501  0.65542753  0.63395215    -0.00300
C646        C  0.45763324  0.67138502  0.60542196    -0.08700
C647        C  0.41566930  0.66061685  0.60334349     0.61600
H648        H  0.45573143  0.70475413  0.55281627     0.12300
H649        H  0.53903470  0.65375227  0.65679932     0.12300
C650        C  0.57999130  0.69428041  0.60292930     0.61900
F651        F  0.39643213  0.68068729  0.57464460    -0.23300
F652        F  0.39812648  0.66854343  0.63832506    -0.20600
F653        F  0.41268162  0.62184993  0.59530478    -0.20300
F654        F  0.58588697  0.73342404  0.60024557    -0.20400
F655        F  0.59644673  0.67616478  0.57145598    -0.20700
F656        F  0.59809188  0.68124731  0.63609685    -0.23400
C657        C  0.65222380  0.42604306  0.36880880    -0.06200
C658        C  0.63247620  0.45770588  0.35290281    -0.00300
C659        C  0.64296947  0.49527305  0.36481724    -0.08800
C660        C  0.66737578  0.49944067  0.39683562    -0.06200
C661        C  0.68355250  0.46762475  0.41571547    -0.00300
C662        C  0.67767175  0.43037930  0.40038396    -0.08700
C663        C  0.69587205  0.39533025  0.41917274     0.61600
H664        H  0.64534398  0.39756374  0.35837245     0.12300
H665        H  0.67273427  0.52799991  0.40822222     0.12300
C666        C  0.62944915  0.53185555  0.34505973     0.61900
F667        F  0.68576638  0.36169542  0.40040989    -0.23300
F668        F  0.68434639  0.39244892  0.45731836    -0.20600
F669        F  0.73535437  0.39859713  0.41800815    -0.20300
F670        F  0.60480015  0.55163709  0.36935737    -0.20400
F671        F  0.61122677  0.52507083  0.31022555    -0.20700
F672        F  0.66081810  0.55481626  0.33733345    -0.23400
C673        C  0.47102189  0.33431530  0.34772655    -0.06200
C674        C  0.50964519  0.34559250  0.34861179    -0.00300
C675        C  0.53347992  0.33321657  0.37928810    -0.08800
C676        C  0.51703410  0.31286093  0.41005794    -0.06200
C677        C  0.47747172  0.30613159  0.41161011    -0.00300
C678        C  0.45425068  0.31512075  0.37937623    -0.08700
C679        C  0.41158920  0.30743268  0.38016808     0.61600
H680        H  0.45326682  0.34401123  0.32392093     0.12300
H681        H  0.53435649  0.30543184  0.43506084     0.12300
C682        C  0.57526199  0.34488590  0.38123187     0.61900
F683        F  0.39466400  0.31432313  0.34458744    -0.23300
F684        F  0.39448006  0.33100207  0.40739441    -0.20600
F685        F  0.40510265  0.26947375  0.38988534    -0.20300
F686        F  0.57758025  0.38401203  0.38739702    -0.20400
F687        F  0.59330494  0.33573533  0.34679613    -0.20700
F688        F  0.59456500  0.32646056  0.41096583    -0.23400
C689        C  0.56030034  0.60050415  0.28998406    -0.06200
C690        C  0.52753203  0.57915258  0.30012768    -0.00300
C691        C  0.50288698  0.59406052  0.32935495    -0.08800
C692        C  0.51536464  0.62464469  0.35212013    -0.06200
C693        C  0.55029286  0.64282265  0.34546677    -0.00300
C694        C  0.57144987  0.63332481  0.31177094    -0.08700
C695        C  0.60508823  0.65761846  0.29916523     0.61600
H696        H  0.57822854  0.59012850  0.26661126     0.12300
H697        H  0.49826580  0.63345822  0.37673244     0.12300
C698        C  0.46406919  0.57694742  0.33850130     0.61900
F699        F  0.62153809  0.64374799  0.26546915    -0.23300
F700        F  0.63287401  0.65829448  0.32758334    -0.20600
F701        F  0.59253731  0.69477164  0.29241833    -0.20300
F702        F  0.46808223  0.54652227  0.36389515    -0.20400
F703        F  0.44700727  0.56463021  0.30482119    -0.20700
F704        F  0.43990010  0.60394088  0.35521994    -0.23400
C705        C  0.34989360  0.46298223  0.33121080    -0.06200
C706        C  0.33968890  0.50213037  0.33232658    -0.00300
C707        C  0.35657530  0.52728867  0.30480846    -0.08800
C708        C  0.38739275  0.51334027  0.28225034    -0.06200
C709        C  0.40285982  0.47659813  0.28860528    -0.00300
C710        C  0.38089165  0.44968272  0.30923561    -0.08700
C711        C  0.38959571  0.40707191  0.30952996     0.61600
H712        H  0.33524784  0.44274329  0.34960519     0.12300
H713        H  0.40239037  0.53248414  0.26289125     0.12300
C714        C  0.34485286  0.56918355  0.30130321     0.61900
F715        F  0.35676856  0.38703873  0.29977815    -0.23300
F716        F  0.40108117  0.39634674  0.34624728    -0.20600
F717        F  0.41780551  0.39705914  0.28321354    -0.20300
F718        F  0.35388447  0.58850007  0.33506473    -0.20400
F719        F  0.30585035  0.57180568  0.29436133    -0.20700
F720        F  0.36354715  0.58733531  0.27115236    -0.23400
C721        C  0.68478558  0.48565928  0.15315568    -0.06200
C722        C  0.67200014  0.50128255  0.11792269    -0.00300
C723        C  0.63211177  0.50477533  0.11112565    -0.08800
C724        C  0.60646001  0.49109416  0.13937281    -0.06200
C725        C  0.61909865  0.47577200  0.17498085    -0.00300
C726        C  0.65923916  0.47348926  0.18220929    -0.08700
C727        C  0.67553559  0.45990525  0.22070295     0.61600
H728        H  0.71542370  0.48382392  0.15808263     0.12300
H729        H  0.57593807  0.49306318  0.13397148     0.12300
C730        C  0.61661148  0.52530319  0.07560750     0.61900
F731        F  0.71485669  0.46493880  0.22284116    -0.23300
F732        F  0.66819040  0.42119999  0.22559774    -0.20600
F733        F  0.65921637  0.48065914  0.25067979    -0.20300
F734        F  0.62614451  0.50503925  0.04254775    -0.20400
F735        F  0.63204273  0.56180249  0.07371999    -0.20700
F736        F  0.57708508  0.52905846  0.07661788    -0.23400
C737        C  0.83303026  0.52647798  0.67826426    -0.06200
C738        C  0.87172550  0.52223597  0.66817277    -0.00300
C739        C  0.88165612  0.50655115  0.63147811    -0.08800
C740        C  0.85208594  0.49515640  0.60640883    -0.06200
C741        C  0.81358584  0.49761229  0.61731608    -0.00300
C742        C  0.80358988  0.51356487  0.65368154    -0.08700
C743        C  0.76222665  0.51608382  0.66685220     0.61600
H744        H  0.82613584  0.53836261  0.70640876     0.12300
H745        H  0.85880490  0.48289672  0.57837688     0.12300
C746        C  0.92306306  0.50169100  0.61844168     0.61900
F747        F  0.75854431  0.53620336  0.70125493    -0.23300
F748        F  0.74832133  0.47945834  0.67262522    -0.20600
F749        F  0.74030163  0.53453314  0.63913861    -0.20300
F750        F  0.94085434  0.47339541  0.64007294    -0.20400
F751        F  0.94267052  0.53582859  0.62276664    -0.20700
F752        F  0.92549781  0.49104737  0.57990243    -0.23400
C753        C  0.86022098  0.58560453  0.88137955    -0.06200
C754        C  0.85978127  0.55625126  0.85364563    -0.00300
C755        C  0.83272183  0.52627617  0.85708477    -0.08800
C756        C  0.80995533  0.52435918  0.89090003    -0.06200
C757        C  0.81304711  0.55201944  0.92046917    -0.00300
C758        C  0.83608723  0.58485989  0.91386100    -0.08700
C759        C  0.83650837  0.61957746  0.94038817     0.61600
H760        H  0.88006106  0.60926528  0.87787376     0.12300
H761        H  0.79144624  0.50003042  0.89538934     0.12300
C762        C  0.82910541  0.49595860  0.82580123     0.61900
F763        F  0.83282941  0.65266856  0.91851513    -0.23300
F764        F  0.87099124  0.62070688  0.96006713    -0.20600
F765        F  0.80670026  0.61936751  0.96675159    -0.20300
F766        F  0.86383683  0.47738990  0.82069286    -0.20400
F767        F  0.81844490  0.51333804  0.79144129    -0.20700
F768        F  0.80179553  0.46868069  0.83495344    -0.23400
C769        C  0.92590247  0.65076568  0.08755679    -0.06200
C770        C  0.93014028  0.67680333  0.05677449    -0.00300
C771        C  0.89749643  0.68512539  0.03321109    -0.08800
C772        C  0.86400714  0.66273084  0.03814987    -0.06200
C773        C  0.86255592  0.63320897  0.06566568    -0.00300
C774        C  0.89268726  0.62921352  0.09256201    -0.08700
C775        C  0.89050545  0.60086186  0.12566124     0.61600
H776        H  0.94998258  0.64473691  0.10632888     0.12300
H777        H  0.83985241  0.66620104  0.01877462     0.12300
C778        C  0.89797767  0.71590785  0.00210698     0.61900
F779        F  0.91645634  0.60952580  0.15462107    -0.23300
F780        F  0.89813344  0.56410384  0.11248081    -0.20600
F781        F  0.85429395  0.60231116  0.14154084    -0.20300
F782        F  0.92389455  0.70638851  0.97338990    -0.20400
F783        F  0.90799381  0.75075971  0.01838210    -0.20700
F784        F  0.86234817  0.72040645  0.98490907    -0.23400
C785        C  0.97075053  0.62244855  0.88929741    -0.06200
C786        C  0.98511654  0.63606214  0.85446771    -0.00300
C787        C  0.01303232  0.66526082  0.85429573    -0.08800
C788        C  0.02461079  0.68129051  0.89010341    -0.06200
C789        C  0.01166356  0.66594007  0.92551093    -0.00300
C790        C  0.98512075  0.63464910  0.92482961    -0.08700
C791        C  0.97263572  0.61215725  0.96051278     0.61600
H792        H  0.95037725  0.59909498  0.88820731     0.12300
H793        H  0.04526069  0.70443946  0.89072195     0.12300
C794        C  0.03060081  0.67838495  0.81654662     0.61900
F795        F  0.94558482  0.58433523  0.95208702    -0.23300
F796        F  0.95638160  0.63654887  0.98716850    -0.20600
F797        F  0.00385914  0.59341497  0.97659817    -0.20300
F798        F  0.00212227  0.69272814  0.79265363    -0.20400
F799        F  0.04831817  0.64764465  0.79835411    -0.20700
F800        F  0.05768981  0.70678908  0.82229452    -0.23400
C801        C  0.09784561  0.54256138  0.80341386    -0.06200
C802        C  0.08365894  0.51588641  0.77684477    -0.00300
C803        C  0.10601076  0.48291877  0.76782057    -0.08800
C804        C  0.13656719  0.47327516  0.79270919    -0.06200
C805        C  0.14578140  0.49672885  0.82447612    -0.00300
C806        C  0.13003548  0.53431440  0.82599433    -0.08700
C807        C  0.14461144  0.56524657  0.85285022     0.61600
H808        H  0.08187207  0.56887984  0.80871316     0.12300
H809        H  0.15111587  0.44593881  0.78901517     0.12300
C810        C  0.09930969  0.45754863  0.73279627     0.61900
F811        F  0.18276958  0.55909511  0.86185330    -0.23300
F812        F  0.12290455  0.56581201  0.88632431    -0.20600
F813        F  0.14185615  0.60079458  0.83508329    -0.20300
F814        F  0.12982918  0.46170865  0.70766504    -0.20400
F815        F  0.06609622  0.46686391  0.71307857    -0.20700
F816        F  0.09750980  0.41940443  0.74386662    -0.23400
C817        C  0.30413510  0.50317544  0.81955976    -0.06200
C818        C  0.31421035  0.49671128  0.85849341    -0.00300
C819        C  0.35226125  0.50526297  0.87064646    -0.08800
C820        C  0.37861797  0.51899486  0.84305998    -0.06200
C821        C  0.36869071  0.52418272  0.80399173    -0.00300
C822        C  0.33066931  0.51617864  0.79195169    -0.08700
C823        C  0.31845936  0.51892767  0.74984054     0.61600
H824        H  0.27503811  0.49720759  0.81050024     0.12300
H825        H  0.40771460  0.52550513  0.85178038     0.12300
C826        C  0.36589007  0.49877894  0.91190064     0.61900
F827        F  0.28159483  0.50544120  0.74401068    -0.23300
F828        F  0.34291758  0.49701257  0.72738091    -0.20600
F829        F  0.31940700  0.55672199  0.73766293    -0.20300
F830        F  0.36060640  0.46073754  0.92182956    -0.20400
F831        F  0.34565965  0.52227735  0.93698762    -0.20700
F832        F  0.40446857  0.50694108  0.91643620    -0.23400
C833        C  0.19123189  0.57447474  0.02503264    -0.06200
C834        C  0.20014376  0.57732000  0.98551233    -0.00300
C835        C  0.19478790  0.61307982  0.96671127    -0.08800
C836        C  0.17419667  0.64225894  0.98603577    -0.06200
C837        C  0.16074555  0.63728106  0.02393410    -0.00300
C838        C  0.17175628  0.60407931  0.04474126    -0.08700
C839        C  0.16059306  0.59897462  0.08677359     0.61600
H840        H  0.19673544  0.54744352  0.03954698     0.12300
H841        H  0.16646644  0.66823120  0.97050455     0.12300
C842        C  0.20933607  0.62180970  0.92655885     0.61900
F843        F  0.17468134  0.56494970  0.10201505    -0.23300
F844        F  0.12121594  0.59860469  0.09010013    -0.20600
F845        F  0.17507526  0.62908660  0.10836617    -0.20300
F846        F  0.17861779  0.62936687  0.90243587    -0.20400
F847        F  0.23090831  0.59208277  0.91129198    -0.20700
F848        F  0.23229912  0.65410495  0.92806857    -0.23400
C849        C  0.97587300  0.37474166  0.84411130    -0.06200
C850        C  0.93848636  0.36135423  0.85022831    -0.00300
C851        C  0.90868638  0.37462116  0.82542418    -0.08800
C852        C  0.91708876  0.40389575  0.79827326    -0.06200
C853        C  0.95420279  0.41907155  0.79452216    -0.00300
C854        C  0.98446634  0.40190099  0.81567277    -0.08700
C855        C  0.02551539  0.41519045  0.81264934     0.61600
H856        H  0.99871648  0.36528444  0.86311050     0.12300
H857        H  0.89415452  0.41739018  0.78200790     0.12300
C858        C  0.86781214  0.36049788  0.82958475     0.61900
F859        F  0.05040170  0.38434369  0.81651702    -0.23300
F860        F  0.03309272  0.44161581  0.84151992    -0.20600
F861        F  0.03220714  0.43155165  0.77713257    -0.20300
F862        F  0.85462707  0.36814399  0.86653727    -0.20400
F863        F  0.86653323  0.32136526  0.82273968    -0.20700
F864        F  0.84327703  0.37821322  0.80354188    -0.23400
C865        C  0.80543953  0.36547480  0.95854139    -0.06200
C866        C  0.83270120  0.35000875  0.98410213    -0.00300
C867        C  0.83249707  0.36198142  0.02317876    -0.08800
C868        C  0.81127357  0.39458352  0.03350964    -0.06200
C869        C  0.78796037  0.41351585  0.00663913    -0.00300
C870        C  0.78209178  0.39683585  0.96975874    -0.08700
C871        C  0.75253271  0.41322550  0.94224474     0.61600
H872        H  0.80472137  0.35501671  0.92901404     0.12300
H873        H  0.81491106  0.40688480  0.06216698     0.12300
C874        C  0.85607869  0.34253760  0.05411604     0.61900
F875        F  0.75105547  0.39277994  0.90790057    -0.23300
F876        F  0.76106068  0.45091454  0.93376236    -0.20600
F877        F  0.71678510  0.41177107  0.95945370    -0.20300
F878        F  0.88816109  0.36443938  0.06196924    -0.20400
F879        F  0.86728617  0.30596983  0.04307902    -0.20700
F880        F  0.83433968  0.33918149  0.08743211    -0.23400
C881        C  0.08914358  0.32156013  0.96896658    -0.06200
C882        C  0.06608434  0.30736462  0.93900607    -0.00300
C883        C  0.07754823  0.31385899  0.90024190    -0.08800
C884        C  0.10800517  0.33981308  0.89291822    -0.06200
C885        C  0.12900481  0.35647555  0.92339014    -0.00300
C886        C  0.12147976  0.34440693  0.96174334    -0.08700
C887        C  0.14575098  0.35591208  0.99622995     0.61600
H888        H  0.08129748  0.31557611  0.99845606     0.12300
H889        H  0.11495437  0.34795381  0.86354312     0.12300
C890        C  0.05812937  0.29284868  0.86722278     0.61900
F891        F  0.15433057  0.32361161  0.01792231    -0.23300
F892        F  0.12545991  0.38165478  0.01886281    -0.20600
F893        F  0.18013094  0.37233367  0.98571134    -0.20300
F894        F  0.01905615  0.29918810  0.86781619    -0.20400
F895        F  0.06487837  0.25386650  0.87113037    -0.20700
F896        F  0.07208400  0.30437538  0.83161902    -0.23400
C897        C  0.10475437  0.48959203  0.34347480    -0.06200
C898        C  0.11760450  0.47850514  0.30646144    -0.00300
C899        C  0.15766456  0.47850342  0.29861024    -0.08800
C900        C  0.18278442  0.49057399  0.32797410    -0.06200
C901        C  0.16965684  0.50247854  0.36448721    -0.00300
C902        C  0.12992003  0.50159082  0.37269240    -0.08700
C903        C  0.11365756  0.51437918  0.41141006     0.61600
H904        H  0.07436664  0.48898654  0.34959078     0.12300
H905        H  0.21336463  0.49102496  0.32256154     0.12300
C906        C  0.17447301  0.46655882  0.25975363     0.61900
F907        F  0.07393237  0.51460125  0.41154424    -0.23300
F908        F  0.12580310  0.55126571  0.41969178    -0.20600
F909        F  0.12575133  0.48949560  0.44012925    -0.20300
F910        F  0.15911044  0.48895263  0.23058228    -0.20400
F911        F  0.16669060  0.42824873  0.25270021    -0.20700
F912        F  0.21390763  0.47098015  0.25860241    -0.23400
C913        C  0.15298348  0.44258264  0.11902360    -0.06200
C914        C  0.11945448  0.46550687  0.11828480    -0.00300
C915        C  0.11254984  0.48975193  0.08555235    -0.08800
C916        C  0.13830621  0.48811679  0.05469847    -0.06200
C917        C  0.16930773  0.46265159  0.05408351    -0.00300
C918        C  0.17806836  0.44055873  0.08703888    -0.08700
C919        C  0.21292096  0.41449914  0.08780144     0.61600
H920        H  0.15852158  0.42485865  0.14414723     0.12300
H921        H  0.13302754  0.50518051  0.02903250     0.12300
C922        C  0.07698414  0.51509716  0.08049589     0.61900
F923        F  0.21565524  0.39438501  0.12223281    -0.23300
F924        F  0.24568339  0.43633689  0.08358069    -0.20600
F925        F  0.21095054  0.38821997  0.05788168    -0.20300
F926        F  0.07411477  0.54121592  0.11053532    -0.20400
F927        F  0.04458716  0.49235623  0.07908185    -0.20700
F928        F  0.07781733  0.53612091  0.04649043    -0.23400
C929        C  0.08592276  0.62491294  0.17323663    -0.06200
C930        C  0.05839207  0.65121730  0.16016892    -0.00300
C931        C  0.02025875  0.64767643  0.17346624    -0.08800
C932        C  0.00878097  0.61254257  0.19022322    -0.06200
C933        C  0.03575280  0.58364103  0.19862468    -0.00300
C934        C  0.07533429  0.59199058  0.19427891    -0.08700
C935        C  0.10614610  0.56569194  0.21035186     0.61600
H936        H  0.11539912  0.62879069  0.16427552     0.12300
H937        H  0.97890010  0.60736222  0.19672026     0.12300
C938        C  0.99302946  0.68174279  0.17174199     0.61900
F939        F  0.14257927  0.58000507  0.20390707    -0.23300
F940        F  0.10389466  0.53013379  0.19318350    -0.20600
F941        F  0.10121401  0.56176648  0.24983352    -0.20300
F942        F  0.98973596  0.69571269  0.13458073    -0.20400
F943        F  0.00726013  0.71073513  0.19499335    -0.20700
F944        F  0.95681748  0.67230601  0.18493569    -0.23400
C945        C  0.02487047  0.31658639  0.07496415    -0.06200
C946        C  0.98699315  0.30340819  0.07498357    -0.00300
C947        C  0.96411699  0.30928306  0.10823153    -0.08800
C948        C  0.97692649  0.33521097  0.13659640    -0.06200
C949        C  0.01234259  0.35358966  0.13287523    -0.00300
C950        C  0.03823341  0.34137512  0.10398150    -0.08700
C951        C  0.07905859  0.35589824  0.10275431     0.61600
H952        H  0.04272155  0.31021326  0.05039878     0.12300
H953        H  0.95869397  0.34202043  0.16101625     0.12300
C954        C  0.92756808  0.28750250  0.11597305     0.61900
F955        F  0.10116567  0.33478911  0.07717000    -0.23300
F956        F  0.09572520  0.35272055  0.13895122    -0.20600
F957        F  0.07912458  0.39388048  0.09129393    -0.20300
F958        F  0.93249627  0.26546827  0.14888519    -0.20400
F959        F  0.91776947  0.26324252  0.08586902    -0.20700
F960        F  0.89795235  0.31305834  0.12249683    -0.23400
C961        C  0.87879550  0.50763667  0.20688855    -0.06200
C962        C  0.89989490  0.47495887  0.19614181    -0.00300
C963        C  0.88267796  0.44805891  0.17084560    -0.08800
C964        C  0.85225188  0.46047671  0.14758810    -0.06200
C965        C  0.83573895  0.49703569  0.15270641    -0.00300
C966        C  0.84447030  0.51713267  0.18749499    -0.08700
C967        C  0.81773632  0.54550380  0.20709369     0.61600
H968        H  0.88950124  0.52632002  0.22956817     0.12300
H969        H  0.84304365  0.44234833  0.12378587     0.12300
C970        C  0.89807505  0.40768570  0.16535511     0.61900
F971        F  0.81139743  0.53341491  0.24466315    -0.23300
F972        F  0.78239339  0.54789062  0.18917975    -0.20600
F973        F  0.83424723  0.58145430  0.20855083    -0.20300
F974        F  0.91858781  0.39575255  0.19753804    -0.20400
F975        F  0.92142231  0.40640563  0.13308153    -0.20700
F976        F  0.86801070  0.38235577  0.16014039    -0.23400
C977        C  0.50707231  0.17088019  0.61309941    -0.06200
C978        C  0.46761378  0.17906927  0.61169116    -0.00300
C979        C  0.44195332  0.15597846  0.63376307    -0.08800
C980        C  0.45732647  0.12795963  0.65878298    -0.06200
C981        C  0.49688653  0.12190449  0.66194085    -0.00300
C982        C  0.52219892  0.14235003  0.63736913    -0.08700
C983        C  0.56505407  0.13407875  0.63612505     0.61600
H984        H  0.52647546  0.18770664  0.59557327     0.12300
H985        H  0.43854886  0.11159275  0.67742738     0.12300
C986        C  0.39861160  0.16033744  0.63137470     0.61900
F987        F  0.58195339  0.14935555  0.60336877    -0.23300
F988        F  0.57138414  0.09488040  0.63546342    -0.20600
F989        F  0.58288812  0.14989759  0.66809928    -0.20300
F990        F  0.38682628  0.15850499  0.59317221    -0.20400
F991        F  0.38757629  0.19507383  0.64743337    -0.20700
F992        F  0.37983014  0.13148672  0.65126135    -0.23400
C993        C  0.47464950  0.66019169  0.81815151    -0.06200
C994        C  0.49899050  0.62921731  0.80882626    -0.00300
C995        C  0.53680170  0.62893326  0.82455322    -0.08800
C996        C  0.54832751  0.65972722  0.84878508    -0.06200
C997        C  0.52339152  0.69013216  0.85854031    -0.00300
C998        C  0.48590929  0.69049582  0.84235900    -0.08700
C999        C  0.45775636  0.72320974  0.84923195     0.61600
H1000       H  0.44580104  0.66044467  0.80662019     0.12300
H1001       H  0.57673131  0.65964425  0.86145989     0.12300
C1002       C  0.56493565  0.59647740  0.81647156     0.61900
F1003       F  0.42624060  0.72128021  0.82489106    -0.23300
F1004       F  0.47573692  0.75764898  0.84214968    -0.20600
F1005       F  0.44443742  0.72226871  0.88686059    -0.20300
F1006       F  0.57043847  0.59265275  0.77705390    -0.20400
F1007       F  0.55087029  0.56248868  0.83141329    -0.20700
F1008       F  0.60039080  0.60304487  0.83323919    -0.23400
C1009       C  0.58841154  0.89049714  0.83816779    -0.06200
C1010       C  0.55786586  0.86818935  0.85194992    -0.00300
C1011       C  0.51987361  0.87744696  0.84057706    -0.08800
C1012       C  0.51349160  0.91074433  0.81892892    -0.06200
C1013       C  0.54358437  0.93407059  0.80656471    -0.00300
C1014       C  0.58185672  0.92349968  0.81532019    -0.08700
C1015       C  0.61514825  0.94856382  0.80309006     0.61600
H1016       H  0.61720660  0.88331178  0.84756195     0.12300
H1017       H  0.48427737  0.91962382  0.81342902     0.12300
C1018       C  0.48471020  0.85444411  0.85139032     0.61900
F1019       F  0.65006224  0.93300167  0.81418816    -0.23300
F1020       F  0.61162294  0.98448875  0.81987741    -0.20600
F1021       F  0.61521598  0.95240984  0.76328188    -0.20300
F1022       F  0.46065016  0.87677992  0.87400125    -0.20400
F1023       F  0.49360422  0.82139779  0.87128603    -0.20700
F1024       F  0.46532977  0.84403991  0.81803995    -0.23400
C1025       C  0.66114187  0.69470506  0.00360079    -0.06200
C1026       C  0.62583780  0.68245382  0.98812779    -0.00300
C1027       C  0.61693547  0.64265550  0.98864370    -0.08800
C1028       C  0.64528138  0.61652358  0.00113101    -0.06200
C1029       C  0.68072839  0.62883515  0.01573518    -0.00300
C1030       C  0.68832179  0.66862752  0.01857597    -0.08700
C1031       C  0.72491624  0.68351467  0.03700382     0.61600
H1032       H  0.66715025  0.72520567  0.00427348     0.12300
H1033       H  0.63980499  0.58592541  0.00008941     0.12300
C1034       C  0.57812646  0.62745642  0.97594697     0.61900
F1035       F  0.72850287  0.72290442  0.03288019    -0.23300
F1036       F  0.75652106  0.66636475  0.01999991    -0.20600
F1037       F  0.72466983  0.67525920  0.07613340    -0.20300
F1038       F  0.57635081  0.58777449  0.97806656    -0.20400
F1039       F  0.57084300  0.63803229  0.93810562    -0.20700
F1040       F  0.54980910  0.64211245  0.99984414    -0.23400
C1041       C  0.84364759  0.12393667  0.02841284    -0.06200
C1042       C  0.80629677  0.13827242  0.03374076    -0.00300
C1043       C  0.79869917  0.17749839  0.02627611    -0.08800
C1044       C  0.82851407  0.20073742  0.01167345    -0.06200
C1045       C  0.86565711  0.18608054  0.00497868    -0.00300
C1046       C  0.87366166  0.14724829  0.01443493    -0.08700
C1047       C  0.91317804  0.13001208  0.00803704     0.61600
H1048       H  0.84884025  0.09380096  0.03435997     0.12300
H1049       H  0.82280871  0.23050407  0.00444885     0.12300
C1050       C  0.75896468  0.19418572  0.03259340     0.61900
F1051       F  0.91428219  0.09128658  0.01712128    -0.23300
F1052       F  0.93959767  0.14861802  0.03120564    -0.20600
F1053       F  0.92358703  0.13400050  0.96965055    -0.20300
F1054       F  0.74869289  0.18998602  0.07098680    -0.20400
F1055       F  0.73275301  0.17509025  0.00957206    -0.20700
F1056       F  0.75738036  0.23291131  0.02354212    -0.23400
C1057       C  0.65219231  0.07163864  0.86614319    -0.06200
C1058       C  0.61244702  0.07700052  0.87102911    -0.00300
C1059       C  0.59799916  0.08743353  0.90779302    -0.08800
C1060       C  0.62307805  0.08760913  0.93906870    -0.06200
C1061       C  0.66182445  0.07630727  0.93582361    -0.00300
C1062       C  0.67756705  0.07173513  0.89822771    -0.08700
C1063       C  0.72048489  0.06932737  0.89167021     0.61600
H1064       H  0.66299675  0.06619163  0.83727151     0.12300
H1065       H  0.61130103  0.09453787  0.96714917     0.12300
C1066       C  0.55617271  0.09839082  0.91463753     0.61900
F1067       F  0.73483618  0.03490690  0.90517752    -0.23300
F1068       F  0.73830502  0.09929780  0.91082586    -0.20600
F1069       F  0.72953916  0.07206635  0.85277619    -0.20300
F1070       F  0.53292952  0.06668471  0.90989762    -0.20400
F1071       F  0.54547867  0.12686025  0.88902111    -0.20700
F1072       F  0.54990464  0.11236847  0.95164982    -0.23400
C1073       C  0.66912156  0.88802322  0.94979219    -0.06200
C1074       C  0.65777334  0.86120097  0.97783762    -0.00300
C1075       C  0.66760521  0.86793662  0.01712055    -0.08800
C1076       C  0.68417741  0.90333141  0.02744731    -0.06200
C1077       C  0.69052144  0.93228212  0.00015538    -0.00300
C1078       C  0.68493021  0.92381529  0.96047275    -0.08700
C1079       C  0.69444582  0.95323056  0.92985615     0.61600
H1080       H  0.66177545  0.88258813  0.91981975     0.12300
H1081       H  0.69022963  0.90921127  0.05741852     0.12300
C1082       C  0.65677171  0.84033025  0.04919942     0.61900
F1083       F  0.69017149  0.93862163  0.89284624    -0.23300
F1084       F  0.73213913  0.96456125  0.93439753    -0.20600
F1085       F  0.67048925  0.98472711  0.93369091    -0.20300
F1086       F  0.65496889  0.80286495  0.03585608    -0.20400
F1087       F  0.62145950  0.85086747  0.06410518    -0.20700
F1088       F  0.68366858  0.84139037  0.07864317    -0.23400
C1089       C  0.53606807  0.80539185  0.10245795    -0.06200
C1090       C  0.51079834  0.79001101  0.07522919    -0.00300
C1091       C  0.47146746  0.78633487  0.08518939    -0.08800
C1092       C  0.45751740  0.80690764  0.11749766    -0.06200
C1093       C  0.48232332  0.82891261  0.14039259    -0.00300
C1094       C  0.52232696  0.82291070  0.13631217    -0.08700
C1095       C  0.55124727  0.83363027  0.16700834     0.61600
H1096       H  0.56658671  0.80517528  0.09650152     0.12300
H1097       H  0.42696928  0.80888003  0.12263333     0.12300
C1098       C  0.44404884  0.76284307  0.06084348     0.61900
F1099       F  0.57843333  0.85752996  0.15123074    -0.23300
F1100       F  0.56940932  0.80056578  0.17972237    -0.20600
F1101       F  0.53467328  0.85140168  0.19870809    -0.20300
F1102       F  0.45911626  0.72647368  0.05507714    -0.20400
F1103       F  0.43817384  0.78021197  0.02558550    -0.20700
F1104       F  0.40875502  0.75898360  0.07869647    -0.23400
C1105       C  0.46381428  0.83286139  0.31648156    -0.06200
C1106       C  0.48538611  0.86552393  0.30683593    -0.00300
C1107       C  0.52235477  0.87015113  0.32344521    -0.08800
C1108       C  0.53508067  0.84316826  0.35113847    -0.06200
C1109       C  0.51276859  0.81133377  0.36175030    -0.00300
C1110       C  0.47702870  0.80533038  0.34316655    -0.08700
C1111       C  0.45329377  0.76953523  0.35043815     0.61600
H1112       H  0.43605101  0.82909128  0.30293830     0.12300
H1113       H  0.56276050  0.84677178  0.36489432     0.12300
C1114       C  0.54927188  0.90181255  0.31049156     0.61900
F1115       F  0.42358077  0.76604508  0.32406899    -0.23300
F1116       F  0.43753022  0.77117898  0.38705387    -0.20600
F1117       F  0.47613543  0.73705829  0.34720819    -0.20300
F1118       F  0.53414180  0.93738929  0.31978441    -0.20400
F1119       F  0.55468565  0.89933090  0.27093470    -0.20700
F1120       F  0.58488222  0.89888219  0.32803565    -0.23400
C1121       C  0.59572602  0.95026532  0.16861961    -0.06200
C1122       C  0.57631936  0.97301517  0.19539017    -0.00300
C1123       C  0.59289724  0.00812064  0.20765142    -0.08800
C1124       C  0.62475830  0.02255904  0.18691335    -0.06200
C1125       C  0.64044487  0.00187006  0.15565384    -0.00300
C1126       C  0.62859338  0.96326821  0.14991271    -0.08700
C1127       C  0.64653304  0.93665968  0.12047780     0.61600
H1128       H  0.58314646  0.92411196  0.15974306     0.12300
H1129       H  0.63471098  0.05140546  0.19231974     0.12300
C1130       C  0.57488207  0.03177922  0.23965384     0.61900
F1131       F  0.62702426  0.93978133  0.08573523    -0.23300
F1132       F  0.64485835  0.89893703  0.13291503    -0.20600
F1133       F  0.68460842  0.94559622  0.11530543    -0.20300
F1134       F  0.57026418  0.00920156  0.27221537    -0.20400
F1135       F  0.53955374  0.04552677  0.22784744    -0.20700
F1136       F  0.59756599  0.06279311  0.24965537    -0.23400
C1137       C  0.16397646  0.79821931  0.97664243    -0.06200
C1138       C  0.12709848  0.80910553  0.98898588    -0.00300
C1139       C  0.11607075  0.84831191  0.98580231    -0.08800
C1140       C  0.14240508  0.87499364  0.97054444    -0.06200
C1141       C  0.17953910  0.86440299  0.95843954    -0.00300
C1142       C  0.19036332  0.82490592  0.96111411    -0.08700
C1143       C  0.22957050  0.81057858  0.94831681     0.61600
H1144       H  0.17201292  0.76825900  0.97942091     0.12300
H1145       H  0.13403520  0.90487441  0.96822266     0.12300
C1146       C  0.07733312  0.86259191  0.00009107     0.61900
F1147       F  0.23472880  0.77184795  0.95598463    -0.23300
F1148       F  0.25806968  0.83046132  0.96762048    -0.20600
F1149       F  0.23343941  0.81570501  0.90885411    -0.20300
F1150       F  0.07229751  0.85215734  0.03834198    -0.20400
F1151       F  0.04838627  0.84697238  0.97778284    -0.20700
F1152       F  0.07412477  0.90220501  0.99792511    -0.23400
C1153       C  0.38678288  0.87799022  0.96872315    -0.06200
C1154       C  0.36357589  0.86934807  0.93666375    -0.00300
C1155       C  0.37329708  0.83730672  0.91306527    -0.08800
C1156       C  0.40744145  0.81685152  0.92140716    -0.06200
C1157       C  0.43283527  0.82950030  0.95023609    -0.00300
C1158       C  0.42261462  0.86117972  0.97401041    -0.08700
C1159       C  0.44981023  0.87954214  0.00325857     0.61600
H1160       H  0.37833506  0.90110013  0.98788461     0.12300
H1161       H  0.41613430  0.79283747  0.90348069     0.12300
C1162       C  0.34900722  0.82556417  0.87867975     0.61900
F1163       F  0.43224656  0.90828400  0.02467406    -0.23300
F1164       F  0.48029019  0.89633608  0.98431153    -0.20600
F1165       F  0.46317236  0.85235864  0.02885098    -0.20300
F1166       F  0.34733359  0.85524426  0.85213839    -0.20400
F1167       F  0.31242366  0.81672814  0.89106230    -0.20700
F1168       F  0.36385314  0.79356428  0.86005331    -0.23400
C1169       C  0.35901125  0.96157702  0.79648969    -0.06200
C1170       C  0.33856884  0.98752931  0.81992354    -0.00300
C1171       C  0.34656026  0.02717198  0.81684099    -0.08800
C1172       C  0.37972120  0.03867686  0.79737023    -0.06200
C1173       C  0.40426555  0.01214213  0.77946230    -0.00300
C1174       C  0.39126495  0.97367550  0.77479084    -0.08700
C1175       C  0.41082850  0.94573743  0.74739506     0.61600
H1176       H  0.35154410  0.93142500  0.79769694     0.12300
H1177       H  0.38780584  0.06856861  0.79819040     0.12300
C1178       C  0.32344701  0.05747553  0.83798462     0.61900
F1179       F  0.39180624  0.91091869  0.74573133    -0.23300
F1180       F  0.44800134  0.93860610  0.75890292    -0.20600
F1181       F  0.41115081  0.96123489  0.71057435    -0.20300
F1182       F  0.34121075  0.06595108  0.87271491    -0.20400
F1183       F  0.28642500  0.04513391  0.84493469    -0.20700
F1184       F  0.32118573  0.09064383  0.81602711    -0.23400
C1185       C  0.32796381  0.96477121  0.11775617    -0.06200
C1186       C  0.35138923  0.93178169  0.11731755    -0.00300
C1187       C  0.34619898  0.90436199  0.08751009    -0.08800
C1188       C  0.32180483  0.91328699  0.05619497    -0.06200
C1189       C  0.30100036  0.94786539  0.05478314    -0.00300
C1190       C  0.30180547  0.97267589  0.08741932    -0.08700
C1191       C  0.27526219  0.00703763  0.09196827     0.61600
H1192       H  0.33076369  0.98502114  0.14144118     0.12300
H1193       H  0.32018394  0.89401629  0.03160628     0.12300
C1194       C  0.36627998  0.86570149  0.08922350     0.61900
F1195       F  0.25474526  0.00312763  0.12595354    -0.23300
F1196       F  0.24923159  0.01042570  0.06197718    -0.20600
F1197       F  0.29635774  0.04044638  0.09410171    -0.20300
F1198       F  0.35811289  0.84820217  0.12416324    -0.20400
F1199       F  0.40538699  0.87050050  0.08614886    -0.20700
F1200       F  0.35447840  0.84150599  0.05975736    -0.23400
C1201       C  0.44322910  0.34983601  0.12344669    -0.06200
C1202       C  0.46320420  0.31496254  0.11967488    -0.00300
C1203       C  0.49410797  0.30713604  0.14488042    -0.08800
C1204       C  0.50589362  0.33575046  0.17114711    -0.06200
C1205       C  0.48756613  0.37199321  0.17374520    -0.00300
C1206       C  0.45428001  0.37838681  0.15047680    -0.08700
C1207       C  0.43004662  0.41461620  0.15389742     0.61600
H1208       H  0.41877712  0.35455470  0.10475136     0.12300
H1209       H  0.53029881  0.32986947  0.18957980     0.12300
C1210       C  0.51510034  0.26888474  0.14334936     0.61900
F1211       F  0.39816425  0.41351467  0.13000078    -0.23300
F1212       F  0.45144745  0.44634404  0.14357237    -0.20600
F1213       F  0.41712476  0.41865499  0.19153485    -0.20300
F1214       F  0.53200269  0.26441641  0.10752094    -0.20400
F1215       F  0.48950580  0.23925677  0.14942824    -0.20700
F1216       F  0.54354264  0.26628264  0.17122001    -0.23400
C1217       C  0.48202606  0.10480712  0.10998942    -0.06200
C1218       C  0.45351009  0.13198779  0.11907834    -0.00300
C1219       C  0.43075392  0.12596683  0.15273970    -0.08800
C1220       C  0.43426066  0.09050082  0.17254869    -0.06200
C1221       C  0.45938659  0.06160229  0.15965347    -0.00300
C1222       C  0.48472170  0.06942680  0.12859021    -0.08700
C1223       C  0.51453675  0.04072526  0.11422459     0.61600
H1224       H  0.50115168  0.11022815  0.08603881     0.12300
H1225       H  0.41596343  0.08427756  0.19700286     0.12300
C1226       C  0.40349215  0.15640651  0.16829617     0.61900
F1227       F  0.53759044  0.05564121  0.08534803    -0.23300
F1228       F  0.49689802  0.00869632  0.09898267    -0.20600
F1229       F  0.53808722  0.03038522  0.14445722    -0.20300
F1230       F  0.37267318  0.16131522  0.14364100    -0.20400
F1231       F  0.42273109  0.19085490  0.17227743    -0.20700
F1232       F  0.38915145  0.14643688  0.20424354    -0.23400
C1233       C  0.56455649  0.18226100  0.07837847    -0.06200
C1234       C  0.56711583  0.19840119  0.04124847    -0.00300
C1235       C  0.60106728  0.19296703  0.01949446    -0.08800
C1236       C  0.63070946  0.16993017  0.03487697    -0.06200
C1237       C  0.62646760  0.15075531  0.07027536    -0.00300
C1238       C  0.59344604  0.15781500  0.09304808    -0.08700
C1239       C  0.58842145  0.13874995  0.13218119     0.61600
H1240       H  0.53821892  0.18631046  0.09449587     0.12300
H1241       H  0.65576145  0.16349832  0.01749751     0.12300
C1242       C  0.60472510  0.20910311  0.97909896     0.61900
F1243       F  0.55534243  0.15111271  0.15060276    -0.23300
F1244       F  0.61938207  0.14744328  0.15556603    -0.20600
F1245       F  0.58628702  0.09937160  0.12793466    -0.20300
F1246       F  0.64128194  0.20400754  0.96428768    -0.20400
F1247       F  0.59677779  0.24806495  0.97970866    -0.20700
F1248       F  0.57914818  0.19062570  0.95491930    -0.23400
C1249       C  0.31648244  0.14564796  0.97867827    -0.06200
C1250       C  0.34443933  0.13662428  0.00671536    -0.00300
C1251       C  0.34516109  0.09903877  0.02282830    -0.08800
C1252       C  0.31891952  0.07171513  0.00932912    -0.06200
C1253       C  0.29364015  0.07942087  0.97885427    -0.00300
C1254       C  0.29149087  0.11715083  0.96375626    -0.08700
C1255       C  0.26345238  0.12672124  0.93170858     0.61600
H1256       H  0.31618296  0.17437248  0.96662601     0.12300
H1257       H  0.32023342  0.04274595  0.02050165     0.12300
C1258       C  0.37396858  0.08715223  0.05374752     0.61900
F1259       F  0.26343781  0.16556822  0.92309842    -0.23300
F1260       F  0.22681244  0.11655981  0.94292740    -0.20600
F1261       F  0.27306454  0.10661368  0.89862006    -0.20300
F1262       F  0.37204927  0.11268865  0.08419375    -0.20400
F1263       F  0.41068547  0.08656000  0.03880178    -0.20700
F1264       F  0.36683671  0.05079793  0.06813825    -0.23400
C1265       C  0.32965076  0.30310258  0.97005164    -0.06200
C1266       C  0.36452642  0.31769493  0.98401393    -0.00300
C1267       C  0.37124903  0.35770125  0.98302146    -0.08800
C1268       C  0.34117433  0.38217180  0.97179840    -0.06200
C1269       C  0.30608745  0.36790107  0.95826592    -0.00300
C1270       C  0.30067324  0.32761960  0.95554457    -0.08700
C1271       C  0.26449294  0.31063686  0.93826493     0.61600
H1272       H  0.32551654  0.27226663  0.97031581     0.12300
H1273       H  0.34495063  0.41297213  0.97323922     0.12300
C1274       C  0.40974880  0.37456038  0.99428918     0.61900
F1275       F  0.26491965  0.27085641  0.93933076    -0.23300
F1276       F  0.26101263  0.32170269  0.90001609    -0.20600
F1277       F  0.23288298  0.32332692  0.95867593    -0.20300
F1278       F  0.43805197  0.36017347  0.97024745    -0.20400
F1279       F  0.41822159  0.36510705  0.03212171    -0.20700
F1280       F  0.41003427  0.41420595  0.99105633    -0.23400
C1281       C  0.44326266  0.18440120  0.87833332    -0.06200
C1282       C  0.46985997  0.20881524  0.89622776    -0.00300
C1283       C  0.50256794  0.22013276  0.87460139    -0.08800
C1284       C  0.51298640  0.19796103  0.84177238    -0.06200
C1285       C  0.48944417  0.16791585  0.82870785    -0.00300
C1286       C  0.45190290  0.16531593  0.84378512    -0.08700
C1287       C  0.42120014  0.14050753  0.82586426     0.61600
H1288       H  0.41624418  0.17834700  0.89257120     0.12300
H1289       H  0.54088967  0.20169878  0.82859486     0.12300
C1290       C  0.52606498  0.25488038  0.88580344     0.61900
F1291       F  0.38797322  0.16193288  0.82141276    -0.23300
F1292       F  0.41384430  0.10985746  0.85010848    -0.20600
F1293       F  0.43177854  0.12698831  0.78972702    -0.20300
F1294       F  0.54570993  0.24810949  0.91969488    -0.20400
F1295       F  0.50196350  0.28618137  0.89080456    -0.20700
F1296       F  0.55243200  0.26407649  0.85740292    -0.23400
C1297       C  0.03078102  0.63926137  0.66847193    -0.06200
C1298       C  0.99158551  0.63007732  0.66975160    -0.00300
C1299       C  0.96550191  0.65020893  0.64566811    -0.08800
C1300       C  0.97983941  0.67723969  0.61931826    -0.06200
C1301       C  0.01888346  0.68652968  0.61775409    -0.00300
C1302       C  0.04491284  0.66782244  0.64313021    -0.08700
C1303       C  0.08732717  0.67732023  0.64269526     0.61600
H1304       H  0.05010448  0.62421936  0.68783876     0.12300
H1305       H  0.96045678  0.69162081  0.59953979     0.12300
C1306       C  0.92258178  0.64325962  0.64776790     0.61900
F1307       F  0.10793391  0.65455786  0.66819513    -0.23300
F1308       F  0.09250238  0.71527448  0.65332121    -0.20600
F1309       F  0.10200943  0.67159538  0.60596493    -0.20300
F1310       F  0.90907281  0.65367481  0.68388287    -0.20400
F1311       F  0.91493699  0.60491343  0.64134528    -0.20700
F1312       F  0.90261414  0.66443373  0.62043398    -0.23400
C1313       C  0.11677551  0.64180888  0.50697441    -0.06200
C1314       C  0.11630462  0.67684038  0.48725466    -0.00300
C1315       C  0.14543135  0.68497474  0.46021929    -0.08800
C1316       C  0.17366469  0.65697727  0.45267759    -0.06200
C1317       C  0.17465853  0.62168304  0.47250162    -0.00300
C1318       C  0.14550884  0.61394022  0.50050369    -0.08700
C1319       C  0.14397919  0.57684808  0.52375492     0.61600
H1320       H  0.09475189  0.63701507  0.52850408     0.12300
H1321       H  0.19588604  0.66299372  0.43171380     0.12300
C1322       C  0.14720947  0.72365199  0.44046765     0.61900
F1323       F  0.17610831  0.57384575  0.54705802    -0.23300
F1324       F  0.14212476  0.54563788  0.49912117    -0.20600
F1325       F  0.11213085  0.57539411  0.54761951    -0.20300
F1326       F  0.15375642  0.75191096  0.46776133    -0.20400
F1327       F  0.11284471  0.73078199  0.42204940    -0.20700
F1328       F  0.17615835  0.72526878  0.41316123    -0.23400
C1329       C  0.67479640  0.83956273  0.53118879    -0.06200
C1330       C  0.67445406  0.87678155  0.51544113    -0.00300
C1331       C  0.64521612  0.88639590  0.48794973    -0.08800
C1332       C  0.61813080  0.85826019  0.47739343    -0.06200
C1333       C  0.61977151  0.82086120  0.49195106    -0.00300
C1334       C  0.64817101  0.81133935  0.51980749    -0.08700
C1335       C  0.65204593  0.77189367  0.53815509     0.61600
H1336       H  0.69678018  0.83202264  0.55208778     0.12300
H1337       H  0.59663733  0.86454082  0.45561294     0.12300
C1338       C  0.64253187  0.92552339  0.46852280     0.61900
F1339       F  0.65390602  0.77579079  0.57795649    -0.23300
F1340       F  0.68552101  0.75471449  0.52532154    -0.20600
F1341       F  0.62168969  0.74789776  0.52973568    -0.20300
F1342       F  0.67328197  0.93041633  0.44385326    -0.20400
F1343       F  0.64241183  0.95430009  0.49592204    -0.20700
F1344       F  0.60928477  0.92950719  0.44689229    -0.23400
C1345       C  0.87591369  0.83838082  0.58357179    -0.06200
C1346       C  0.85177154  0.85182684  0.55390544    -0.00300
C1347       C  0.85683720  0.83732558  0.51595198    -0.08800
C1348       C  0.88924689  0.81451346  0.50778179    -0.06200
C1349       C  0.91510392  0.80325542  0.53675138    -0.00300
C1350       C  0.90694335  0.81315717  0.57572220    -0.08700
C1351       C  0.93131410  0.79766173  0.60858186     0.61600
H1352       H  0.87139022  0.84921093  0.61260644     0.12300
H1353       H  0.89528874  0.80668858  0.47807189     0.12300
C1354       C  0.83098761  0.84830855  0.48247483     0.61900
F1355       F  0.92827698  0.75811664  0.60946064    -0.23300
F1356       F  0.91965981  0.81193941  0.64409470    -0.20600
F1357       F  0.96927290  0.80726243  0.60336833    -0.20300
F1358       F  0.84906312  0.87589072  0.46044922    -0.20400
F1359       F  0.79586736  0.86241509  0.49454480    -0.20700
F1360       F  0.82400162  0.81636937  0.45968692    -0.23400
C1361       C  0.61277740  0.01875221  0.64353092    -0.06200
C1362       C  0.62591238  0.03150192  0.67993697    -0.00300
C1363       C  0.66599063  0.03194050  0.68708247    -0.08800
C1364       C  0.69094809  0.01799295  0.65799466    -0.06200
C1365       C  0.67731828  0.00385544  0.62229083    -0.00300
C1366       C  0.63747170  0.00487636  0.61473194    -0.08700
C1367       C  0.62053766  0.98971635  0.57728806     0.61600
H1368       H  0.58229661  0.01916635  0.63768511     0.12300
H1369       H  0.72157303  0.01725788  0.66323116     0.12300
C1370       C  0.68248332  0.04558286  0.72534160     0.61900
F1371       F  0.58083253  0.99068627  0.57728533    -0.23300
F1372       F  0.63180606  0.95191950  0.57201174    -0.20600
F1373       F  0.63294221  0.01204120  0.54674157    -0.20300
F1374       F  0.66759348  0.02393340  0.75526253    -0.20400
F1375       F  0.67346604  0.08390482  0.73102283    -0.20700
F1376       F  0.72204268  0.04205427  0.72643707    -0.23400
C1377       C  0.10672930  0.00052043  0.82838856    -0.06200
C1378       C  0.11925378  0.02462682  0.79829896    -0.00300
C1379       C  0.15865363  0.03475166  0.79645681    -0.08800
C1380       C  0.18391322  0.02052735  0.82513474    -0.06200
C1381       C  0.17102012  0.99685584  0.85522328    -0.00300
C1382       C  0.13199262  0.98635469  0.85682224    -0.08700
C1383       C  0.11742444  0.95976071  0.88826260     0.61600
H1384       H  0.07666940  0.99289253  0.82957079     0.12300
H1385       H  0.21412294  0.02749041  0.82413490     0.12300
C1386       C  0.17432909  0.05920593  0.76381286     0.61900
F1387       F  0.07841983  0.95321455  0.88501341    -0.23300
F1388       F  0.12434814  0.97588037  0.92417074    -0.20600
F1389       F  0.13615649  0.92473460  0.88581827    -0.20300
F1390       F  0.15986950  0.09614136  0.76662157    -0.20400
F1391       F  0.16401422  0.04350500  0.72853538    -0.20700
F1392       F  0.21396017  0.06139363  0.76495229    -0.23400
C1393       C  0.05754575  0.91068173  0.66817306    -0.06200
C1394       C  0.02435420  0.93297498  0.66339610    -0.00300
C1395       C  0.99603144  0.92140066  0.63637824    -0.08800
C1396       C  0.00280613  0.88884950  0.61392156    -0.06200
C1397       C  0.03767443  0.86874326  0.61542833    -0.00300
C1398       C  0.06511593  0.87868146  0.64420385    -0.08700
C1399       C  0.10290271  0.85733571  0.64848153     0.61600
H1400       H  0.07885853  0.92042073  0.68874978     0.12300
H1401       H  0.98145722  0.88033938  0.59287777     0.12300
C1402       C  0.95925595  0.94387778  0.62972148     0.61900
F1403       F  0.12532447  0.87259189  0.67773997    -0.23300
F1404       F  0.12352477  0.85958939  0.61438904    -0.20600
F1405       F  0.09595789  0.81925883  0.65740469    -0.20300
F1406       F  0.96742871  0.97969703  0.61495546    -0.20400
F1407       F  0.94017327  0.94746401  0.66423475    -0.20700
F1408       F  0.93476456  0.92589216  0.60387024    -0.23400
C1409       C  0.97829215  0.14692508  0.87578637    -0.06200
C1410       C  0.96300749  0.18257153  0.86378624    -0.00300
C1411       C  0.96160683  0.19088709  0.82352066    -0.08800
C1412       C  0.97669486  0.16379123  0.79727780    -0.06200
C1413       C  0.99259962  0.12862216  0.80936646    -0.00300
C1414       C  0.99296550  0.11965446  0.84939442    -0.08700
C1415       C  0.00965054  0.08212232  0.86455540     0.61600
H1416       H  0.97879234  0.14048060  0.90640873     0.12300
H1417       H  0.97616202  0.16993558  0.76657610     0.12300
C1418       C  0.94494557  0.22819835  0.80778949     0.61900
F1419       F  0.01046818  0.08106649  0.90459111    -0.23300
F1420       F  0.04688504  0.07752579  0.85148747    -0.20600
F1421       F  0.98753584  0.05165495  0.85197909    -0.20300
F1422       F  0.96365322  0.25925645  0.82401745    -0.20400
F1423       F  0.90621513  0.23019933  0.81620674    -0.20700
F1424       F  0.94882116  0.23093414  0.76803349    -0.23400
C1425       C  0.88524788  0.04808012  0.66838450    -0.06200
C1426       C  0.90411687  0.02477027  0.69514714    -0.00300
C1427       C  0.88641836  0.99015179  0.70711745    -0.08800
C1428       C  0.85659994  0.97490561  0.68378481    -0.06200
C1429       C  0.84213798  0.99602951  0.65225462    -0.00300
C1430       C  0.85250861  0.03522071  0.64916069    -0.08700
C1431       C  0.83084568  0.06346139  0.62428473     0.61600
H1432       H  0.89724821  0.07584686  0.66107124     0.12300
H1433       H  0.84665303  0.94583880  0.68836736     0.12300
C1434       C  0.89987539  0.96927139  0.74314330     0.61900
F1435       F  0.82966958  0.09882948  0.64260899    -0.23300
F1436       F  0.79343227  0.05159087  0.61864762    -0.20600
F1437       F  0.84905412  0.06731391  0.58898322    -0.20300
F1438       F  0.87650928  0.93834445  0.75157247    -0.20400
F1439       F  0.93697186  0.95594196  0.73872444    -0.20700
F1440       F  0.89875079  0.99434715  0.77421257    -0.23400
C1441       C  0.96994167  0.34452753  0.29371342    -0.06200
C1442       C  0.99366679  0.37379583  0.30766189    -0.00300
C1443       C  0.00459570  0.37433440  0.34696059    -0.08800
C1444       C  0.99108662  0.34525953  0.37150049    -0.06200
C1445       C  0.96714945  0.31570872  0.35791449    -0.00300
C1446       C  0.95643377  0.31513927  0.31816735    -0.08700
C1447       C  0.93207615  0.28324907  0.30111293     0.61600
H1448       H  0.96230555  0.34482967  0.26331956     0.12300
H1449       H  0.99896095  0.34562470  0.40181667     0.12300
C1450       C  0.03044383  0.40567124  0.36266664     0.61900
F1451       F  0.92963921  0.28577070  0.26120312    -0.23300
F1452       F  0.89524732  0.28541316  0.31574663    -0.20600
F1453       F  0.94807299  0.24793933  0.31006929    -0.20300
F1454       F  0.01343994  0.44115176  0.35675364    -0.20400
F1455       F  0.06536331  0.40447085  0.34377555    -0.20700
F1456       F  0.03721215  0.40151830  0.40190995    -0.23400
C1457       C  0.81666915  0.14367078  0.49933030    -0.06200
C1458       C  0.83355642  0.13948163  0.46273690    -0.00300
C1459       C  0.82487533  0.10679154  0.44016866    -0.08800
C1460       C  0.80522053  0.07633678  0.45769346    -0.06200
C1461       C  0.79334613  0.07818120  0.49642057    -0.00300
C1462       C  0.79505804  0.11390728  0.51604461    -0.08700
C1463       C  0.77481483  0.12256908  0.55372844     0.61600
H1464       H  0.82161909  0.16983410  0.51560021     0.12300
H1465       H  0.80142511  0.04962451  0.44210617     0.12300
C1466       C  0.83904404  0.10279621  0.39894837     0.61900
F1467       F  0.74979545  0.15300146  0.54811306    -0.23300
F1468       F  0.80137319  0.13320114  0.58129968    -0.20600
F1469       F  0.75384649  0.09191205  0.56734642    -0.20300
F1470       F  0.82535908  0.06981940  0.38135303    -0.20400
F1471       F  0.82689975  0.13400551  0.37738920    -0.20700
F1472       F  0.87853976  0.10121116  0.39881024    -0.23400
C1473       C  0.83905607  0.38271351  0.49637605    -0.06200
C1474       C  0.80275796  0.37071505  0.50955222    -0.00300
C1475       C  0.79343391  0.33104880  0.50696201    -0.08800
C1476       C  0.82103357  0.30520509  0.49188711    -0.06200
C1477       C  0.85727785  0.31742304  0.47905203    -0.00300
C1478       C  0.86620114  0.35714597  0.48061171    -0.08700
C1479       C  0.90335011  0.37319844  0.46417965     0.61600
H1480       H  0.84626623  0.41286358  0.49835706     0.12300
H1481       H  0.81454699  0.27484474  0.49022415     0.12300
C1482       C  0.75465331  0.31572410  0.51941866     0.61900
F1483       F  0.90341039  0.41298939  0.46376058    -0.23300
F1484       F  0.90811208  0.36073553  0.42644984    -0.20600
F1485       F  0.93418496  0.36132503  0.48637582    -0.20300
F1486       F  0.72567353  0.33522305  0.50030025    -0.20400
F1487       F  0.75037581  0.32029900  0.55892717    -0.20700
F1488       F  0.75070630  0.27702716  0.51101747    -0.23400
C1489       C  0.99656108  0.21608381  0.58972753    -0.06200
C1490       C  0.96199987  0.20478983  0.57218534    -0.00300
C1491       C  0.93877201  0.17772712  0.59115404    -0.08800
C1492       C  0.95442991  0.15665370  0.62180335    -0.06200
C1493       C  0.99244970  0.16227145  0.63455885    -0.00300
C1494       C  0.01247233  0.19502223  0.62098420    -0.08700
C1495       C  0.05085589  0.20659405  0.63782939     0.61600
H1496       H  0.01282934  0.23886149  0.57631376     0.12300
H1497       H  0.93743079  0.13368021  0.63408643     0.12300
C1498       C  0.89813541  0.16888287  0.57848493     0.61900
F1499       F  0.06346844  0.24110942  0.62270066    -0.23300
F1500       F  0.07816678  0.17879146  0.62983492    -0.20600
F1501       F  0.04741087  0.21099185  0.67747098    -0.20300
F1502       F  0.89684508  0.13252245  0.56238420    -0.20400
F1503       F  0.88445769  0.19521677  0.55182250    -0.20700
F1504       F  0.87415985  0.17008778  0.61032963    -0.23400
C1505       C  0.83393675  0.96919788  0.17689607    -0.06200
C1506       C  0.87158201  0.98230536  0.17099224    -0.00300
C1507       C  0.87940534  0.00507935  0.13747269    -0.08800
C1508       C  0.84851587  0.01682494  0.11396860    -0.06200
C1509       C  0.81097652  0.00507417  0.12130023    -0.00300
C1510       C  0.80381070  0.97905791  0.15179225    -0.08700
C1511       C  0.76548859  0.95910138  0.15553272     0.61600
H1512       H  0.82820431  0.95029147  0.20102657     0.12300
H1513       H  0.85326066  0.03610289  0.08987681     0.12300
C1514       C  0.91963070  0.01717822  0.12572849     0.61900
F1515       F  0.76597355  0.93104294  0.18390078    -0.23300
F1516       F  0.75719271  0.94149334  0.12066189    -0.20600
F1517       F  0.73696339  0.98519111  0.16473452    -0.20300
F1518       F  0.94227599  0.98494573  0.11988033    -0.20400
F1519       F  0.93552570  0.04018451  0.15412340    -0.20700
F1520       F  0.91972460  0.03787606  0.09153107    -0.23400
C1521       C  0.84986003  0.98567256  0.42366803    -0.06200
C1522       C  0.81802830  0.96145731  0.42373067    -0.00300
C1523       C  0.81003676  0.93885155  0.39085318    -0.08800
C1524       C  0.83582303  0.94004945  0.35928367    -0.06200
C1525       C  0.86953827  0.96252844  0.36019120    -0.00300
C1526       C  0.87613881  0.98663181  0.39309539    -0.08700
C1527       C  0.91160049  0.01171139  0.39825089     0.61600
H1528       H  0.85525678  0.00244337  0.44950144     0.12300
H1529       H  0.83053302  0.92207975  0.33428059     0.12300
C1530       C  0.77508884  0.91319567  0.38965459     0.61900
F1531       F  0.91029874  0.03329190  0.43193100    -0.23300
F1532       F  0.91468455  0.03720141  0.36777414    -0.20600
F1533       F  0.94404082  0.98880986  0.40042657    -0.20300
F1534       F  0.74235102  0.93554252  0.39248470    -0.20400
F1535       F  0.77604111  0.88760939  0.42015753    -0.20700
F1536       F  0.77320957  0.89226388  0.35561510    -0.23400
C1537       C  0.00451368  0.82287766  0.33690703    -0.06200
C1538       C  0.97121428  0.84519773  0.34130766    -0.00300
C1539       C  0.94588906  0.83731196  0.37217799    -0.08800
C1540       C  0.95733572  0.81122216  0.40089924    -0.06200
C1541       C  0.99283803  0.79250328  0.39911818    -0.00300
C1542       C  0.01482782  0.79527208  0.36489470    -0.08700
C1543       C  0.04802019  0.76859940  0.35657391     0.61600
H1544       H  0.02297877  0.82762062  0.31218199     0.12300
H1545       H  0.94050288  0.80857041  0.42703871     0.12300
C1546       C  0.90849067  0.85896687  0.37675988     0.61900
F1547       F  0.04333504  0.75248540  0.32026478    -0.23300
F1548       F  0.04979348  0.73894709  0.38308865    -0.20600
F1549       F  0.08199271  0.78878965  0.35718343    -0.20300
F1550       F  0.88889346  0.85972618  0.34197906    -0.20400
F1551       F  0.91599481  0.89603161  0.38885619    -0.20700
F1552       F  0.88505710  0.84158777  0.40368713    -0.23400
C1553       C  0.99116565  0.09849172  0.30799324    -0.06200
C1554       C  0.96197522  0.07780861  0.28965744    -0.00300
C1555       C  0.92366593  0.09148346  0.29178684    -0.08800
C1556       C  0.91535969  0.12295507  0.31640049    -0.06200
C1557       C  0.94441920  0.14115390  0.33772593    -0.00300
C1558       C  0.98311368  0.13082073  0.33085331    -0.08700
C1559       C  0.01662733  0.15162142  0.34895451     0.61600
H1560       H  0.02050722  0.08818895  0.30587804     0.12300
H1561       H  0.88592928  0.13170997  0.32129103     0.12300
C1562       C  0.89162402  0.07134549  0.27012770     0.61900
F1563       F  0.00622841  0.18729803  0.36322069    -0.23300
F1564       F  0.04481252  0.15737680  0.32144699    -0.20600
F1565       F  0.03152869  0.12937638  0.37852024    -0.20300
F1566       F  0.88902728  0.03350808  0.28190420    -0.20400
F1567       F  0.89909792  0.07233775  0.23084879    -0.20700
F1568       F  0.85645447  0.08880217  0.27645698    -0.23400
C1569       C  0.04101296  0.82763349  0.14414347    -0.06200
C1570       C  0.01665130  0.81469544  0.11436492    -0.00300
C1571       C  0.97809526  0.82883187  0.11315414    -0.08800
C1572       C  0.96718575  0.85789848  0.13941888    -0.06200
C1573       C  0.99233436  0.87158071  0.16785490    -0.00300
C1574       C  0.02904653  0.85480463  0.17165674    -0.08700
C1575       C  0.05445628  0.86369301  0.20613640     0.61600
H1576       H  0.06973124  0.81592304  0.14628834     0.12300
H1577       H  0.93860587  0.87015765  0.13820600     0.12300
C1578       C  0.94784338  0.81297538  0.08569049     0.61900
F1579       F  0.08568239  0.83909853  0.20824126    -0.23300
F1580       F  0.03350305  0.85951145  0.23984435    -0.20600
F1581       F  0.06798760  0.90086742  0.20359688    -0.20300
F1582       F  0.91197437  0.82887860  0.09235667    -0.20400
F1583       F  0.94464726  0.77368130  0.09082435    -0.20700
F1584       F  0.95762058  0.82096276  0.04778528    -0.23400
C1585       C  0.37237773  0.15022537  0.48040633    -0.06200
C1586       C  0.35781467  0.18623280  0.49167990    -0.00300
C1587       C  0.31798104  0.19407946  0.48642104    -0.08800
C1588       C  0.29412940  0.16469822  0.47247361    -0.06200
C1589       C  0.30839222  0.12815787  0.46329045    -0.00300
C1590       C  0.34847270  0.12099230  0.46602247    -0.08700
C1591       C  0.36638020  0.08314343  0.45316480     0.61600
H1592       H  0.40274270  0.14464566  0.48398152     0.12300
H1593       H  0.26357673  0.16976352  0.46969181     0.12300
C1594       C  0.30013891  0.23311967  0.49500204     0.61900
F1595       F  0.40604094  0.08497210  0.45235639    -0.23300
F1596       F  0.35400597  0.07401409  0.41624939    -0.20600
F1597       F  0.35630169  0.05414998  0.47843859    -0.20300
F1598       F  0.32157380  0.26171886  0.47780874    -0.20400
F1599       F  0.29850307  0.23902740  0.53454903    -0.20700
F1600       F  0.26314049  0.23605786  0.48070021    -0.23400
C1601       C  0.08354407  0.18923703  0.41469603    -0.06200
C1602       C  0.06398678  0.18782043  0.45004110    -0.00300
C1603       C  0.08059877  0.16791883  0.48140244    -0.08800
C1604       C  0.11281593  0.14476766  0.47473132    -0.06200
C1605       C  0.12934224  0.14134706  0.43780548    -0.00300
C1606       C  0.11657387  0.16653379  0.40803292    -0.08700
C1607       C  0.13575707  0.16776689  0.36882334     0.61600
H1608       H  0.07118963  0.20609734  0.39150867     0.12300
H1609       H  0.12358282  0.12699361  0.49802733     0.12300
C1610       C  0.06348897  0.17019390  0.52151189     0.61900
F1611       F  0.11966144  0.19543072  0.34498984    -0.23300
F1612       F  0.13187331  0.13256265  0.35096166    -0.20600
F1613       F  0.17422482  0.17630876  0.37321558    -0.20300
F1614       F  0.02851411  0.15176114  0.52216384    -0.20400
F1615       F  0.05869770  0.20837007  0.53133880    -0.20700
F1616       F  0.08699168  0.15330994  0.54902867    -0.23400
C1617       C  0.16502621  0.01560240  0.58111145    -0.06200
C1618       C  0.18322359  0.04568542  0.56163745    -0.00300
C1619       C  0.17915906  0.08363886  0.57603892    -0.08800
C1620       C  0.15261205  0.09061770  0.60641451    -0.06200
C1621       C  0.13213478  0.06033022  0.62368182    -0.00300
C1622       C  0.14138920  0.02206676  0.61320669    -0.08700
C1623       C  0.12598617  0.98706886  0.63394983     0.61600
H1624       H  0.16802534  0.98658453  0.57020407     0.12300
H1625       H  0.14632232  0.11976435  0.61548637     0.12300
C1626       C  0.20178683  0.11636973  0.55842702     0.61900
F1627       F  0.15537835  0.96080239  0.63957802    -0.23300
F1628       F  0.09791476  0.97016395  0.61145463    -0.20600
F1629       F  0.11119295  0.99594931  0.66995689    -0.20300
F1630       F  0.19241924  0.12074151  0.51983373    -0.20400
F1631       F  0.24057457  0.10837213  0.56134627    -0.20700
F1632       F  0.19469422  0.15082324  0.57721119    -0.23400
C1633       C  0.13868886  0.97245044  0.33242951    -0.06200
C1634       C  0.14818672  0.01118409  0.32687303    -0.00300
C1635       C  0.13211657  0.03113290  0.29491484    -0.08800
C1636       C  0.10226500  0.01352764  0.27406991    -0.06200
C1637       C  0.08870157  0.97689328  0.28396076    -0.00300
C1638       C  0.11018269  0.95446360  0.31039155    -0.08700
C1639       C  0.10176669  0.91263226  0.31832169     0.61600
H1640       H  0.15205142  0.95672675  0.35596779     0.12300
H1641       H  0.08704486  0.03022901  0.25243930     0.12300
C1642       C  0.14303019  0.07134024  0.28263439     0.61900
F1643       F  0.13571260  0.89277784  0.32425355    -0.23300
F1644       F  0.08325829  0.89557237  0.28748123    -0.20600
F1645       F  0.07916913  0.90971227  0.35097291    -0.20300
F1646       F  0.17312556  0.08624996  0.30365903    -0.20400
F1647       F  0.11155505  0.09535812  0.28648893    -0.20700
F1648       F  0.15381427  0.07063953  0.24413450    -0.23400
C1649       C  0.31501488  0.01929889  0.32286168    -0.06200
C1650       C  0.31253333  0.99981827  0.35865713    -0.00300
C1651       C  0.33615641  0.96683123  0.36448169    -0.08800
C1652       C  0.36021147  0.95434967  0.33399035    -0.06200
C1653       C  0.36273207  0.97440158  0.29887128    -0.00300
C1654       C  0.34006126  0.00761814  0.29321020    -0.08700
C1655       C  0.34208868  0.03058264  0.25587788     0.61600
H1656       H  0.29736167  0.04448718  0.31811327     0.12300
H1657       H  0.37838050  0.92930486  0.33774430     0.12300
C1658       C  0.33731783  0.94542881  0.40273374     0.61900
F1659       F  0.31388953  0.05865893  0.25408714    -0.23300
F1660       F  0.33736729  0.00642971  0.22442782    -0.20600
F1661       F  0.37727548  0.04853565  0.25329757    -0.20300
F1662       F  0.30201038  0.92903999  0.41005428    -0.20400
F1663       F  0.34672709  0.97058834  0.43225817    -0.20700
F1664       F  0.36442337  0.91623599  0.40263207    -0.23400
C1665       C  0.17337257  0.86411195  0.51297271    -0.06200
C1666       C  0.14490283  0.84960263  0.48834254    -0.00300
C1667       C  0.14264293  0.86361223  0.45005714    -0.08800
C1668       C  0.16280250  0.89687981  0.44020213    -0.06200
C1669       C  0.18767838  0.91496776  0.46642439    -0.00300
C1670       C  0.19600592  0.89604992  0.50207873    -0.08700
C1671       C  0.22746421  0.90973877  0.52905620     0.61600
H1672       H  0.17575907  0.85221482  0.54181789     0.12300
H1673       H  0.15788108  0.90962994  0.41201727     0.12300
C1674       C  0.11753018  0.84531739  0.41955564     0.61900
F1675       F  0.23237756  0.88517073  0.56016723    -0.23300
F1676       F  0.21874030  0.94572185  0.54342673    -0.20600
F1677       F  0.26181175  0.91122129  0.50913636    -0.20300
F1678       F  0.08434186  0.86669466  0.41515907    -0.20400
F1679       F  0.10804471  0.80808829  0.42916966    -0.20700
F1680       F  0.13694511  0.84395222  0.38472941    -0.23400
loop_ 
_geom_bond_atom_site_label_1 
_geom_bond_atom_site_label_2 
_geom_bond_distance 
_geom_bond_site_symmetry_2 
_ccdc_geom_bond_type 
O1           C16   1.268       .  A
O1           Al9   1.941       .  S
C2           O12   1.259       .  A
C2            O3   1.259       .  A
C2         C1634   1.477       .  S
O3           Al5   1.900       .  S
O4            C6   1.260       .  A
O4           Al5   1.889   1_565  S
Al5          O13   1.873       .  S
Al5          O15   1.900       .  S
Al5          O14   1.772       .  S
C6           O19   1.265       .  A
C6         C1669   1.496       .  S
O7           C17   1.269   1_565  A
O7           Al9   1.926   1_565  S
O8           C21   1.262       .  A
O8          Al18   1.900       .  S
Al9          O22   1.911       .  S
Al9          O19   1.944   1_545  S
Al9          O14   1.784       .  S
O10          C17   1.266       .  A
O10         Al18   1.908       .  S
O11          C20   1.265       .  A
O11         Al18   1.940       .  S
O12         Al18   1.913       .  S
O13          C20   1.258       .  A
O14         Al18   1.784       .  S
O15          C16   1.261       .  A
C16        C1618   1.483       .  S
C17        C1650   1.504   1_545  S
C20        C1605   1.493       .  S
C21          O22   1.260       .  A
C21        C1589   1.483       .  S
O23          C38   1.265       .  A
O23         Al31   1.919   1_545  S
C24          O34   1.260       .  A
C24          O25   1.258       .  A
C24        C1538   1.474       .  S
O25         Al27   1.902       .  S
O26          C28   1.258       .  A
O26         Al27   1.886   1_455  S
Al27         O35   1.873       .  S
Al27         O37   1.917   1_565  S
Al27         O36   1.769       .  S
C28          O41   1.265       .  A
C28        C1637   1.483       .  S
O29          C39   1.266       .  A
O29         Al31   1.896       .  S
O30          C43   1.263       .  A
O30         Al40   1.906       .  S
Al31         O44   1.901       .  S
Al31         O41   1.935   1_655  S
Al31         O36   1.781       .  S
O32          C39   1.268       .  A
O32         Al40   1.925       .  S
O33          C42   1.269       .  A
O33         Al40   1.945       .  S
O34         Al40   1.914       .  S
O35          C42   1.254       .  A
O36         Al40   1.781       .  S
O37          C38   1.264       .  A
C38        C1554   1.479       .  S
C39        C1573   1.477       .  S
C42        C1525   1.501       .  S
C43          O44   1.256       .  A
C43        C1506   1.496       .  S
O45          C60   1.258       .  A
O45         Al53   1.891       .  S
C46          O56   1.253       .  A
C46          O47   1.261       .  A
C46        C1458   1.474       .  S
O47         Al49   1.932       .  S
O48          C50   1.263       .  A
O48         Al49   1.899       .  S
Al49         O57   1.910       .  S
Al49         O59   1.920       .  S
Al49         O58   1.804       .  S
C50          O63   1.266       .  A
C50        C1477   1.492       .  S
O51          C61   1.259       .  A
O51         Al53   1.911       .  S
O52          C65   1.256   1_655  A
O52         Al62   1.877       .  S
Al53         O66   1.933   1_655  S
Al53         O63   1.925       .  S
Al53         O58   1.798       .  S
O54          C61   1.260       .  A
O54         Al62   1.895       .  S
O55          C64   1.265       .  A
O55         Al62   1.919       .  S
O56         Al62   1.881       .  S
O57          C64   1.261       .  A
O58         Al62   1.779       .  S
O59          C60   1.260       .  A
C60        C1445   1.488       .  S
C61        C1490   1.479       .  S
C64        C1557   1.482       .  S
C65          O66   1.262       .  A
C65        C1602   1.475       .  S
O67          C82   1.261       .  A
O67         Al75   1.890       .  S
C68          O78   1.250   1_455  A
C68          O69   1.267       .  A
C68        C1493   1.496   1_455  S
O69         Al71   1.962       .  S
O70          C72   1.261       .  A
O70         Al71   1.885       .  S
Al71         O79   1.911       .  S
Al71         O81   1.942       .  S
Al71         O80   1.795       .  S
C72          O85   1.266       .  A
C72        C1413   1.491   1_455  S
O73          C83   1.258       .  A
O73         Al75   1.906   1_655  S
O74          C87   1.252       .  A
O74         Al84   1.857   1_565  S
Al75         O88   1.948   1_545  S
Al75         O85   1.933       .  S
Al75         O80   1.798       .  S
O76          C83   1.262       .  A
O76         Al84   1.903   1_655  S
O77          C86   1.266       .  A
O77         Al84   1.933       .  S
O78         Al84   1.848   1_655  S
O79          C86   1.260       .  A
O80         Al84   1.771       .  S
O81          C82   1.267       .  A
C82        C1378   1.492       .  S
C83        C1426   1.476       .  S
C86        C1621   1.488       .  S
C87          O88   1.266       .  A
C87        C1394   1.469       .  S
O89         C104   1.256       .  A
O89         Al97   1.882       .  S
C90         O100   1.260       .  A
C90          O91   1.273       .  A
C90        C1429   1.492       .  S
O91         Al93   1.970       .  S
O92          C94   1.257       .  A
O92         Al93   1.879       .  S
Al93        O101   1.920       .  S
Al93        O103   1.956       .  S
Al93        O102   1.788       .  S
C94         O107   1.268       .  A
C94        C1365   1.489   1_565  S
O95         C105   1.257       .  A
O95         Al97   1.907   1_545  S
O96         C109   1.260       .  A
O96        Al106   1.876       .  S
Al97        O110   1.964       .  S
Al97        O107   1.937       .  S
Al97        O102   1.791       .  S
O98         C105   1.262       .  A
O98        Al106   1.921   1_545  S
O99         C108   1.261       .  A
O99        Al106   1.922       .  S
O100       Al106   1.863       .  S
O101        C108   1.262       .  A
O102       Al106   1.768       .  S
O103        C104   1.272       .  A
C104       C1330   1.501       .  S
C105       C1461   1.480       .  S
C108       C1346   1.485       .  S
C109        O110   1.271       .  A
C109       C1522   1.478       .  S
O111        C126   1.269       .  A
O111       Al119   1.938   1_655  S
C112        O122   1.260       .  A
C112        O113   1.254       .  A
C112       C1666   1.483       .  S
O113       Al115   1.877       .  S
O114        C116   1.253       .  A
O114       Al115   1.893       .  S
Al115       O123   1.863       .  S
Al115       O125   1.922   1_455  S
Al115       O124   1.779       .  S
C116        O129   1.261   1_455  A
C116       C1541   1.477   1_455  S
O117        C127   1.273       .  A
O117       Al119   1.926       .  S
O118        C131   1.258       .  A
O118       Al128   1.915       .  S
Al119       O132   1.895       .  S
Al119       O129   1.942   1_455  S
Al119       O124   1.794       .  S
O120        C127   1.265       .  A
O120       Al128   1.902       .  S
O121        C130   1.259       .  A
O121       Al128   1.905       .  S
O122       Al128   1.924       .  S
O123        C130   1.259       .  A
O124       Al128   1.799       .  S
O125        C126   1.265       .  A
C126       C1349   1.488       .  S
C127       C1314   1.475       .  S
C130       C1397   1.485       .  S
C131        O132   1.255       .  A
C131       C1301   1.485       .  S
O133        C148   1.263       .  A
O133       Al141   1.933       .  S
C134        O144   1.261       .  A
C134        O135   1.252       .  A
C134       C1250   1.490       .  S
O135       Al137   1.889       .  S
O136        C138   1.262       .  A
O136       Al137   1.880   1_556  S
Al137       O145   1.865       .  S
Al137       O147   1.915       .  S
Al137       O146   1.771       .  S
C138        O151   1.270       .  A
C138       C1282   1.494       .  S
O139        C149   1.264   1_556  A
O139       Al141   1.896   1_556  S
O140        C153   1.259       .  A
O140       Al150   1.915       .  S
Al141       O154   1.919       .  S
Al141       O151   1.962   1_554  S
Al141       O146   1.787       .  S
O142        C149   1.268       .  A
O142       Al150   1.921       .  S
O143        C152   1.268       .  A
O143       Al150   1.945       .  S
O144       Al150   1.934       .  S
O145        C152   1.263       .  A
O146       Al150   1.790       .  S
O147        C148   1.257       .  A
C148       C1234   1.483       .  S
C149       C1266   1.476   1_554  S
C152       C1218   1.496       .  S
C153        O154   1.260       .  A
C153       C1202   1.488       .  S
O155        C170   1.270       .  A
O155       Al163   1.930   1_554  S
C156        O166   1.259       .  A
C156        O157   1.252       .  A
C156       C1170   1.481       .  S
O157       Al159   1.871       .  S
O158        C160   1.249       .  A
O158       Al159   1.890   1_545  S
Al159       O167   1.837       .  S
Al159       O169   1.931       .  S
Al159       O168   1.772       .  S
C160        O173   1.263       .  A
C160       C1253   1.484       .  S
O161        C171   1.274       .  A
O161       Al163   1.916       .  S
O162        C175   1.255       .  A
O162       Al172   1.910       .  S
Al163       O176   1.921       .  S
Al163       O173   1.964   1_565  S
Al163       O168   1.796       .  S
O164        C171   1.273       .  A
O164       Al172   1.928       .  S
O165        C174   1.263       .  A
O165       Al172   1.929       .  S
O166       Al172   1.927       .  S
O167        C174   1.256       .  A
O168       Al172   1.796       .  S
O169        C170   1.268   1_556  A
C170       C1189   1.486       .  S
C171       C1381   1.479       .  S
C174       C1154   1.488       .  S
C175        O176   1.260       .  A
C175       C1141   1.509       .  S
O177        C192   1.255       .  A
O177       Al185   1.887       .  S
C178        O188   1.256       .  A
C178        O179   1.268       .  A
C178       C1093   1.485       .  S
O179       Al181   1.959       .  S
O180        C182   1.262       .  A
O180       Al181   1.881       .  S
Al181       O189   1.929       .  S
Al181       O191   1.932       .  S
Al181       O190   1.789       .  S
C182        O195   1.272       .  A
C182       C1106   1.490       .  S
O183        C193   1.254       .  A
O183       Al185   1.898       .  S
O184        C197   1.258   1_565  A
O184       Al194   1.876       .  S
Al185       O198   1.952   1_565  S
Al185       O195   1.948       .  S
Al185       O190   1.790       .  S
O186        C193   1.259       .  A
O186       Al194   1.893       .  S
O187        C196   1.266       .  A
O187       Al194   1.931       .  S
O188       Al194   1.881       .  S
O189        C196   1.265       .  A
O190       Al194   1.767       .  S
O191        C192   1.263       .  A
C192       C1653   1.482       .  S
C193       C1122   1.476       .  S
C196       C1186   1.491       .  S
C197        O198   1.270       .  A
C197       C1221   1.479       .  S
O199        C214   1.258       .  A
O199       Al207   1.892       .  S
C200        O210   1.259       .  A
C200        O201   1.277       .  A
C200       C1125   1.491       .  S
O201       Al203   1.980       .  S
O202        C204   1.260       .  A
O202       Al203   1.879       .  S
Al203       O211   1.927       .  S
Al203       O213   1.943       .  S
Al203       O212   1.780       .  S
C204        O217   1.271       .  A
C204       C1509   1.477       .  S
O205        C215   1.259       .  A
O205       Al207   1.923   1_565  S
O206        C219   1.256   1_554  A
O206       Al216   1.838       .  S
Al207       O220   1.979   1_554  S
Al207       O217   1.937       .  S
Al207       O212   1.784       .  S
O208        C215   1.260       .  A
O208       Al216   1.929   1_565  S
O209        C218   1.258       .  A
O209       Al216   1.917       .  S
O210       Al216   1.854       .  S
O211        C218   1.261       .  A
O212       Al216   1.765       .  S
O213        C214   1.266       .  A
C214       C1042   1.487       .  S
C215       C1077   1.490       .  S
C218       C1237   1.480       .  S
C219        O220   1.275       .  A
C219       C1061   1.496       .  S
O221        C236   1.251       .  A
O221       Al229   1.882       .  S
C222        O232   1.252       .  A
C222        O223   1.269       .  A
C222       C1074   1.486       .  S
O223       Al225   1.971       .  S
O224        C226   1.267       .  A
O224       Al225   1.885       .  S
Al225       O233   1.908       .  S
Al225       O235   1.955       .  S
Al225       O234   1.793       .  S
C226        O239   1.274       .  A
C226       C1026   1.491       .  S
O227        C237   1.255       .  A
O227       Al229   1.902   1_554  S
O228        C241   1.252       .  A
O228       Al238   1.849       .  S
Al229       O242   1.940       .  S
Al229       O239   1.945       .  S
Al229       O234   1.782       .  S
O230        C237   1.259       .  A
O230       Al238   1.904   1_554  S
O231        C240   1.269       .  A
O231       Al238   1.934       .  S
O232       Al238   1.873       .  S
O233        C240   1.266       .  A
O234       Al238   1.768       .  S
O235        C236   1.265       .  A
C236        C997   1.498       .  S
C237       C1090   1.478       .  S
C240       C1010   1.473       .  S
C241        O242   1.268       .  A
C241       C1157   1.470       .  S
O243        C258   1.266       .  A
O243       Al251   1.917   1_565  S
C244        O254   1.262       .  A
C244        O245   1.257       .  A
C244       C1285   1.486       .  S
O245       Al247   1.879       .  S
O246        C248   1.255       .  A
O246       Al247   1.890       .  S
Al247       O255   1.881       .  S
Al247       O257   1.905   1_545  S
Al247       O256   1.774       .  S
C248        O261   1.256       .  A
C248       C1173   1.494       .  S
O249        C259   1.271       .  A
O249       Al251   1.914       .  S
O250        C263   1.261       .  A
O250       Al260   1.928       .  S
Al251       O264   1.877       .  S
Al251       O261   1.933       .  S
Al251       O256   1.796       .  S
O252        C259   1.263       .  A
O252       Al260   1.895       .  S
O253        C262   1.258       .  A
O253       Al260   1.909       .  S
O254       Al260   1.930       .  S
O255        C262   1.256       .  A
O256       Al260   1.803       .  S
O257        C258   1.264       .  A
C258       C1013   1.474       .  S
C259        C981   1.477       .  S
C262       C1058   1.475       .  S
C263        O264   1.255       .  A
C263       C1362   1.497       .  S
O265        C280   1.261       .  A
O265       Al273   1.914       .  S
C266        O276   1.256       .  A
C266        O267   1.264       .  A
C266        C949   1.467       .  S
O267       Al269   1.925       .  S
O268        C270   1.254       .  A
O268       Al269   1.859   1_655  S
Al269       O277   1.855       .  S
Al269       O279   1.943       .  S
Al269       O278   1.763       .  S
C270        O283   1.267       .  A
C270        C962   1.479       .  S
O271        C281   1.264   1_655  A
O271       Al273   1.900   1_655  S
O272        C285   1.258       .  A
O272       Al282   1.887       .  S
Al273       O286   1.908       .  S
Al273       O283   1.951   1_455  S
Al273       O278   1.780       .  S
O274        C281   1.267       .  A
O274       Al282   1.926       .  S
O275        C284   1.269       .  A
O275       Al282   1.948       .  S
O276       Al282   1.891       .  S
O277        C284   1.251       .  A
O278       Al282   1.781       .  S
O279        C280   1.268       .  A
C280        C933   1.488       .  S
C281       C1442   1.471   1_455  S
C284        C914   1.491       .  S
C285        O286   1.264       .  A
C285        C898   1.488       .  S
O287        C302   1.270       .  A
O287       Al295   1.943   1_455  S
C288        O298   1.255       .  A
C288        O289   1.255       .  A
C288        C866   1.478       .  S
O289       Al291   1.888       .  S
O290        C292   1.255       .  A
O290       Al291   1.898   1_554  S
Al291       O299   1.886       .  S
Al291       O301   1.917   1_655  S
Al291       O300   1.783       .  S
C292        O305   1.257       .  A
C292        C946   1.472       .  S
O293        C303   1.271       .  A
O293       Al295   1.927       .  S
O294        C307   1.254       .  A
O294       Al304   1.897       .  S
Al295       O308   1.900       .  S
Al295       O305   1.921   1_556  S
Al295       O300   1.803       .  S
O296        C303   1.268       .  A
O296       Al304   1.918       .  S
O297        C306   1.264       .  A
O297       Al304   1.929       .  S
O298       Al304   1.907       .  S
O299        C306   1.260       .  A
O300       Al304   1.800       .  S
O301        C302   1.265       .  A
C302        C882   1.490       .  S
C303       C1045   1.493   1_556  S
C306        C850   1.493       .  S
C307        O308   1.255       .  A
C307       C1410   1.498       .  S
O309        C324   1.260       .  A
O309       Al317   1.892       .  S
C310        O320   1.258       .  A
C310        O311   1.267       .  A
C310        C805   1.485       .  S
O311       Al313   1.937       .  S
O312        C314   1.261       .  A
O312       Al313   1.884       .  S
Al313       O321   1.916       .  S
Al313       O323   1.917       .  S
Al313       O322   1.794       .  S
C314        O327   1.265       .  A
C314        C818   1.497       .  S
O315        C325   1.260       .  A
O315       Al317   1.920       .  S
O316        C329   1.260   1_556  A
O316       Al326   1.868       .  S
Al317       O330   1.941   1_556  S
Al317       O327   1.928       .  S
Al317       O322   1.796       .  S
O318        C325   1.260       .  A
O318       Al326   1.913       .  S
O319        C328   1.263       .  A
O319       Al326   1.930       .  S
O320       Al326   1.872       .  S
O321        C328   1.260       .  A
O322       Al326   1.775       .  S
O323        C324   1.261       .  A
C324       C1269   1.480       .  S
C325        C834   1.484       .  S
C328        C885   1.488       .  S
C329        O330   1.266       .  A
C329        C917   1.469       .  S
O331        C346   1.254       .  A
O331       Al339   1.879       .  S
C332        O342   1.258       .  A
C332        O333   1.271       .  A
C332        C837   1.477       .  S
O333       Al335   1.961       .  S
O334        C336   1.263       .  A
O334       Al335   1.906       .  S
Al335       O343   1.929       .  S
Al335       O345   1.913       .  S
Al335       O344   1.793       .  S
C336        O349   1.266       .  A
C336       C1138   1.499   1_554  S
O337        C347   1.264       .  A
O337       Al339   1.932   1_556  S
O338        C351   1.263       .  A
O338       Al348   1.872   1_655  S
Al339       O352   1.948   1_455  S
Al339       O349   1.933       .  S
Al339       O344   1.796       .  S
O340        C347   1.249       .  A
O340       Al348   1.868   1_556  S
O341        C350   1.254       .  A
O341       Al348   1.893       .  S
O342       Al348   1.872       .  S
O343        C350   1.257       .  A
O344       Al348   1.773       .  S
O345        C346   1.265       .  A
C346       C1570   1.497       .  S
C347        C789   1.489       .  S
C350        C930   1.478       .  S
C351        O352   1.268       .  A
C351        C770   1.497       .  S
O353        C368   1.254       .  A
O353       Al361   1.868       .  S
C354        O364   1.258       .  A
C354        O355   1.270       .  A
C354        C786   1.463       .  S
O355       Al357   1.952       .  S
O356        C358   1.258       .  A
O356       Al357   1.884       .  S
Al357       O365   1.922       .  S
Al357       O367   1.932       .  S
Al357       O366   1.783       .  S
C358        O371   1.271       .  A
C358       C1298   1.482       .  S
O359        C369   1.254       .  A
O359       Al361   1.902   1_455  S
O360        C373   1.258       .  A
O360       Al370   1.868       .  S
Al361       O374   1.979       .  S
Al361       O371   1.950       .  S
Al361       O366   1.779       .  S
O362        C369   1.258       .  A
O362       Al370   1.906   1_455  S
O363        C372   1.262       .  A
O363       Al370   1.925       .  S
O364       Al370   1.879       .  S
O365        C372   1.262       .  A
O366       Al370   1.766       .  S
O367        C368   1.266       .  A
C368        C738   1.476       .  S
C369        C802   1.468       .  S
C372        C754   1.481       .  S
C373        O374   1.278       .  A
C373        C853   1.482       .  S
O375        C390   1.276       .  A
O375       Al383   1.967   1_556  S
C376        O386   1.266       .  A
C376        O377   1.264       .  A
C376        C965   1.494       .  S
O377       Al379   1.892       .  S
O378        C380   1.252       .  A
O378       Al379   1.882       .  S
Al379       O387   1.901       .  S
Al379       O389   1.881   1_554  S
Al379       O388   1.774       .  S
C380        O393   1.256       .  A
C380        C869   1.472       .  S
O381        C391   1.270       .  A
O381       Al383   1.941       .  S
O382        C395   1.259       .  A
O382       Al392   1.911       .  S
Al383       O396   1.890       .  S
Al383       O393   1.917       .  S
Al383       O388   1.789       .  S
O384        C391   1.259       .  A
O384       Al392   1.875       .  S
O385        C394   1.259       .  A
O385       Al392   1.919       .  S
O386       Al392   1.945       .  S
O387        C394   1.258       .  A
O388       Al392   1.792       .  S
O389        C390   1.264       .  A
C390        C757   1.490       .  S
C391        C722   1.488       .  S
C394        C773   1.476       .  S
C395        O396   1.258       .  A
C395       C1029   1.481       .  S
O397        C412   1.259       .  A
O397       Al405   1.902       .  S
C398        O408   1.251       .  A
C398        O399   1.256       .  A
C398        C674   1.473       .  S
O399       Al401   1.918       .  S
O400        C402   1.265       .  A
O400       Al401   1.907       .  S
Al401       O409   1.935       .  S
Al401       O411   1.900       .  S
Al401       O410   1.795       .  S
C402        O415   1.266       .  A
C402       C1205   1.512       .  S
O403        C413   1.262       .  A
O403       Al405   1.923       .  S
O404        C417   1.255       .  A
O404       Al414   1.880       .  S
Al405       O418   1.954       .  S
Al405       O415   1.926       .  S
Al405       O410   1.799       .  S
O406        C413   1.263       .  A
O406       Al414   1.899       .  S
O407        C416   1.263       .  A
O407       Al414   1.895       .  S
O408       Al414   1.878       .  S
O409        C416   1.267       .  A
O410       Al414   1.783       .  S
O411        C412   1.257       .  A
C412        C725   1.499       .  S
C413        C709   1.482       .  S
C416        C658   1.489       .  S
C417        O418   1.268       .  A
C417        C690   1.494       .  S
O419        C434   1.273       .  A
O419       Al427   1.971       .  S
C420        O430   1.266       .  A
C420        O421   1.254       .  A
C420        C610   1.480       .  S
O421       Al423   1.872       .  S
O422        C424   1.257       .  A
O422       Al423   1.897       .  S
Al423       O431   1.926       .  S
Al423       O433   1.878       .  S
Al423       O432   1.764       .  S
C424        O437   1.258       .  A
C424        C642   1.477       .  S
O425        C435   1.275       .  A
O425       Al427   1.957       .  S
O426        C439   1.261       .  A
O426       Al436   1.924       .  S
Al427       O440   1.894       .  S
Al427       O437   1.914       .  S
Al427       O432   1.784       .  S
O428        C435   1.263       .  A
O428       Al436   1.883       .  S
O429        C438   1.264       .  A
O429       Al436   1.921       .  S
O430       Al436   1.951       .  S
O431        C438   1.268       .  A
O432       Al436   1.796       .  S
O433        C434   1.257       .  A
C434        C626   1.496       .  S
C435       C1333   1.480       .  S
C438        C693   1.483       .  S
C439        O440   1.257       .  A
C439       C1109   1.487       .  S
O441        C456   1.253       .  A
O441       Al449   1.885       .  S
C442        O452   1.262       .  A
C442        O443   1.270       .  A
C442        C706   1.492       .  S
O443       Al445   1.953       .  S
O444        C446   1.262       .  A
O444       Al445   1.875       .  S
Al445       O453   1.946       .  S
Al445       O455   1.923       .  S
Al445       O454   1.787       .  S
C446        O459   1.267       .  A
C446        C901   1.479       .  S
O447        C457   1.253       .  A
O447       Al449   1.908       .  S
O448        C461   1.261       .  A
O448       Al458   1.871       .  S
Al449       O462   1.945       .  S
Al449       O459   1.924       .  S
Al449       O454   1.786       .  S
O450        C457   1.254       .  A
O450       Al458   1.887       .  S
O451        C460   1.262       .  A
O451       Al458   1.903       .  S
O452       Al458   1.881       .  S
O453        C460   1.267       .  A
O454       Al458   1.768       .  S
O455        C456   1.263       .  A
C456       C1317   1.496       .  S
C457        C594   1.467       .  S
C460        C629   1.498       .  S
C461        O462   1.271       .  A
C461        C578   1.466       .  S
O463        C478   1.265       .  A
O463       Al471   1.940       .  S
C464        O474   1.258       .  A
C464        O465   1.254       .  A
C464        C645   1.480       .  S
O465       Al467   1.893       .  S
O466        C468   1.261       .  A
O466       Al467   1.888       .  S
Al467       O475   1.890       .  S
Al467       O477   1.890       .  S
Al467       O476   1.784       .  S
C468        O481   1.262       .  A
C468        C562   1.481       .  S
O469        C479   1.264       .  A
O469       Al471   1.918       .  S
O470        C483   1.256       .  A
O470       Al480   1.897       .  S
Al471       O484   1.905       .  S
Al471       O481   1.923       .  S
Al471       O476   1.806       .  S
O472        C479   1.265       .  A
O472       Al480   1.898       .  S
O473        C482   1.264       .  A
O473       Al480   1.920       .  S
O474       Al480   1.919       .  S
O475        C482   1.261       .  A
O476       Al480   1.794       .  S
O477        C478   1.257       .  A
C478        C546   1.489       .  S
C479        C994   1.504       .  S
C482        C581   1.483       .  S
C483        O484   1.259       .  A
C483        C821   1.489       .  S
O485        C500   1.259       .  A
O485       Al493   1.890       .  S
C486        O496   1.261       .  A
C486        O487   1.269       .  A
C486        C597   1.480       .  S
O487       Al489   1.945       .  S
O488        C490   1.258       .  A
O488       Al489   1.870       .  S
Al489       O497   1.922       .  S
Al489       O499   1.901       .  S
Al489       O498   1.784       .  S
C490        O503   1.272       .  A
C490       C1586   1.491       .  S
O491        C501   1.256       .  A
O491       Al493   1.911       .  S
O492        C505   1.259       .  A
O492       Al502   1.866       .  S
Al493       O506   1.960       .  S
Al493       O503   1.937       .  S
Al493       O498   1.785       .  S
O494        C501   1.256       .  A
O494       Al502   1.900       .  S
O495        C504   1.262       .  A
O495       Al502   1.916       .  S
O496       Al502   1.881       .  S
O497        C504   1.261       .  A
O498       Al502   1.769       .  S
O499        C500   1.257       .  A
C500        C978   1.490       .  S
C501        C677   1.473       .  S
C504        C549   1.480       .  S
C505        O506   1.273       .  A
C505        C533   1.470       .  S
O507        C522   1.269       .  A
O507       Al515   1.925       .  S
C508        O518   1.255       .  A
C508        O509   1.252       .  A
C508        C565   1.475       .  S
O509       Al511   1.863       .  S
O510        C512   1.255       .  A
O510       Al511   1.900       .  S
Al511       O519   1.873       .  S
Al511       O521   1.908       .  S
Al511       O520   1.777       .  S
C512        O525   1.257       .  A
C512        C613   1.477       .  S
O513        C523   1.268       .  A
O513       Al515   1.898       .  S
O514        C527   1.257       .  A
O514       Al524   1.920       .  S
Al515       O528   1.887       .  S
Al515       O525   1.915       .  S
Al515       O520   1.790       .  S
O516        C523   1.271       .  A
O516       Al524   1.926       .  S
O517        C526   1.267       .  A
O517       Al524   1.929       .  S
O518       Al524   1.909       .  S
O519        C526   1.255       .  A
O520       Al524   1.796       .  S
O521        C522   1.264       .  A
C522        C661   1.478       .  S
C523        C741   1.472       .  S
C526        C530   1.499       .  S
C527        O528   1.254       .  A
C527       C1474   1.501       .  S
C529        C530   1.415       .  A
C529        C534   1.413       .  A
C529        H536   1.082       .  S
C530        C531   1.432       .  A
C531        C532   1.401       .  A
C531        C538   1.527       .  S
C532        C533   1.396       .  A
C532        H537   1.083       .  S
C533        C534   1.407       .  A
C534        C535   1.514       .  S
C535        F539   1.384       .  S
C535        F540   1.383       .  S
C535        F541   1.384       .  S
C538        F542   1.378       .  S
C538        F543   1.383       .  S
C538        F544   1.385       .  S
C545        C546   1.408       .  A
C545        C550   1.419       .  A
C545        H552   1.083       .  S
C546        C547   1.419       .  A
C547        C548   1.397       .  A
C547        C554   1.515       .  S
C548        C549   1.397       .  A
C548        H553   1.083       .  S
C549        C550   1.415       .  A
C550        C551   1.512       .  S
C551        F555   1.384       .  S
C551        F556   1.384       .  S
C551        F557   1.379       .  S
C554        F558   1.379       .  S
C554        F559   1.382       .  S
C554        F560   1.385       .  S
C561        C562   1.406       .  A
C561        C566   1.412       .  A
C561        H568   1.081       .  S
C562        C563   1.411       .  A
C563        C564   1.396       .  A
C563        C570   1.511       .  S
C564        C565   1.401       .  A
C564        H569   1.085       .  S
C565        C566   1.416       .  A
C566        C567   1.516       .  S
C567        F571   1.385       .  S
C567        F572   1.382       .  S
C567        F573   1.383       .  S
C570        F574   1.383       .  S
C570        F575   1.383       .  S
C570        F576   1.383       .  S
C577        C578   1.399       .  A
C577        C582   1.404       .  A
C577        H584   1.085       .  S
C578        C579   1.411       .  A
C579        C580   1.408       .  A
C579        C586   1.518       .  S
C580        C581   1.408       .  A
C580        H585   1.081       .  S
C581        C582   1.421       .  A
C582        C583   1.518       .  S
C583        F587   1.382       .  S
C583        F588   1.379       .  S
C583        F589   1.383       .  S
C586        F590   1.383       .  S
C586        F591   1.383       .  S
C586        F592   1.384       .  S
C593        C594   1.401       .  A
C593        C598   1.407       .  A
C593        H600   1.083       .  S
C594        C595   1.410       .  A
C595        C596   1.404       .  A
C595        C602   1.516       .  S
C596        C597   1.404       .  A
C596        H601   1.080       .  S
C597        C598   1.417       .  A
C598        C599   1.513       .  S
C599        F603   1.384       .  S
C599        F604   1.383       .  S
C599        F605   1.381       .  S
C602        F606   1.378       .  S
C602        F607   1.382       .  S
C602        F608   1.385       .  S
C609        C610   1.404       .  A
C609        C614   1.401       .  A
C609        H616   1.083       .  S
C610        C611   1.416       .  A
C611        C612   1.407       .  A
C611        C618   1.513       .  S
C612        C613   1.405       .  A
C612        H617   1.083       .  S
C613        C614   1.413       .  A
C614        C615   1.513       .  S
C615        F619   1.384       .  S
C615        F620   1.382       .  S
C615        F621   1.382       .  S
C618        F622   1.385       .  S
C618        F623   1.383       .  S
C618        F624   1.381       .  S
C625        C626   1.411       .  A
C625        C630   1.424       .  A
C625        H632   1.081       .  S
C626        C627   1.423       .  A
C627        C628   1.397       .  A
C627        C634   1.523       .  S
C628        C629   1.402       .  A
C628        H633   1.083       .  S
C629        C630   1.420       .  A
C630        C631   1.515       .  S
C631        F635   1.385       .  S
C631        F636   1.383       .  S
C631        F637   1.382       .  S
C634        F638   1.375       .  S
C634        F639   1.382       .  S
C634        F640   1.385       .  S
C641        C642   1.401       .  A
C641        C646   1.406       .  A
C641        H648   1.084       .  S
C642        C643   1.413       .  A
C643        C644   1.411       .  A
C643        C650   1.512       .  S
C644        C645   1.403       .  A
C644        H649   1.080       .  S
C645        C646   1.415       .  A
C646        C647   1.514       .  S
C647        F651   1.385       .  S
C647        F652   1.383       .  S
C647        F653   1.381       .  S
C650        F654   1.382       .  S
C650        F655   1.381       .  S
C650        F656   1.384       .  S
C657        C658   1.409       .  A
C657        C662   1.414       .  A
C657        H664   1.082       .  S
C658        C659   1.420       .  A
C659        C660   1.403       .  A
C659        C666   1.519       .  S
C660        C661   1.402       .  A
C660        H665   1.085       .  S
C661        C662   1.415       .  A
C662        C663   1.519       .  S
C663        F667   1.384       .  S
C663        F668   1.383       .  S
C663        F669   1.383       .  S
C666        F670   1.383       .  S
C666        F671   1.381       .  S
C666        F672   1.384       .  S
C673        C674   1.405       .  A
C673        C678   1.411       .  A
C673        H680   1.083       .  S
C674        C675   1.413       .  A
C675        C676   1.403       .  A
C675        C682   1.515       .  S
C676        C677   1.401       .  A
C676        H681   1.085       .  S
C677        C678   1.411       .  A
C678        C679   1.513       .  S
C679        F683   1.384       .  S
C679        F684   1.382       .  S
C679        F685   1.383       .  S
C682        F686   1.381       .  S
C682        F687   1.383       .  S
C682        F688   1.385       .  S
C689        C690   1.410       .  A
C689        C694   1.423       .  A
C689        H696   1.083       .  S
C690        C691   1.423       .  A
C691        C692   1.394       .  A
C691        C698   1.515       .  S
C692        C693   1.394       .  A
C692        H697   1.083       .  S
C693        C694   1.417       .  A
C694        C695   1.514       .  S
C695        F699   1.384       .  S
C695        F700   1.379       .  S
C695        F701   1.383       .  S
C698        F702   1.383       .  S
C698        F703   1.376       .  S
C698        F704   1.386       .  S
C705        C706   1.407       .  A
C705        C710   1.399       .  A
C705        H712   1.080       .  S
C706        C707   1.423       .  A
C707        C708   1.412       .  A
C707        C714   1.518       .  S
C708        C709   1.403       .  A
C708        H713   1.082       .  S
C709        C710   1.408       .  A
C710        C711   1.512       .  S
C711        F715   1.384       .  S
C711        F716   1.382       .  S
C711        F717   1.384       .  S
C714        F718   1.383       .  S
C714        F719   1.383       .  S
C714        F720   1.384       .  S
C721        C722   1.406       .  A
C721        C726   1.410       .  A
C721        H728   1.083       .  S
C722        C723   1.415       .  A
C723        C724   1.409       .  A
C723        C730   1.519       .  S
C724        C725   1.411       .  A
C724        H729   1.082       .  S
C725        C726   1.423       .  A
C726        C727   1.521       .  S
C727        F731   1.385       .  S
C727        F732   1.383       .  S
C727        F733   1.384       .  S
C730        F734   1.382       .  S
C730        F735   1.383       .  S
C730        F736   1.384       .  S
C737        C738   1.401       .  A
C737        C742   1.407       .  A
C737        H744   1.083       .  S
C738        C739   1.423       .  A
C739        C740   1.404       .  A
C739        C746   1.522       .  S
C740        C741   1.397       .  A
C740        H745   1.084       .  S
C741        C742   1.417       .  A
C742        C743   1.515       .  S
C743        F747   1.385       .  S
C743        F748   1.380       .  S
C743        F749   1.382       .  S
C746        F750   1.382       .  S
C746        F751   1.381       .  S
C746        F752   1.385       .  S
C753        C754   1.400       .  A
C753        C758   1.404       .  A
C753        H760   1.085       .  S
C754        C755   1.415       .  A
C755        C756   1.415       .  A
C755        C762   1.515       .  S
C756        C757   1.407       .  A
C756        H761   1.078       .  S
C757        C758   1.419       .  A
C758        C759   1.516       .  S
C759        F763   1.384       .  S
C759        F764   1.381       .  S
C759        F765   1.383       .  S
C762        F766   1.382       .  S
C762        F767   1.383       .  S
C762        F768   1.385       .  S
C769        C770   1.407       .  A
C769        C774   1.394       .  A
C769        H776   1.081       .  S
C770        C771   1.428       .  A
C771        C772   1.417       .  A
C771        C778   1.519       .  S
C772        C773   1.402       .  A
C772        H777   1.082       .  S
C773        C774   1.409       .  A
C774        C775   1.514       .  S
C775        F779   1.382       .  S
C775        F780   1.382       .  S
C775        F781   1.378       .  S
C778        F782   1.382   1_554  S
C778        F783   1.382       .  S
C778        F784   1.385   1_554  S
C785        C786   1.389       .  A
C785        C790   1.392       .  A
C785        H792   1.082       .  S
C786        C787   1.410   1_655  A
C787        C788   1.416       .  A
C787        C794   1.514       .  S
C788        C789   1.411       .  A
C788        H793   1.083       .  S
C789        C790   1.432   1_455  A
C790        C791   1.526       .  S
C791        F795   1.385       .  S
C791        F796   1.373       .  S
C791        F797   1.383   1_655  S
C794        F798   1.383       .  S
C794        F799   1.384       .  S
C794        F800   1.384       .  S
C801        C802   1.397       .  A
C801        C806   1.396       .  A
C801        H808   1.085       .  S
C802        C803   1.419       .  A
C803        C804   1.408       .  A
C803        C810   1.516       .  S
C804        C805   1.405       .  A
C804        H809   1.084       .  S
C805        C806   1.417       .  A
C806        C807   1.510       .  S
C807        F811   1.382       .  S
C807        F812   1.383       .  S
C807        F813   1.385       .  S
C810        F814   1.383       .  S
C810        F815   1.381       .  S
C810        F816   1.384       .  S
C817        C818   1.409       .  A
C817        C822   1.406       .  A
C817        H824   1.082       .  S
C818        C819   1.424       .  A
C819        C820   1.410       .  A
C819        C826   1.519       .  S
C820        C821   1.405       .  A
C820        H825   1.083       .  S
C821        C822   1.418       .  A
C822        C823   1.519       .  S
C823        F827   1.385       .  S
C823        F828   1.381       .  S
C823        F829   1.382       .  S
C826        F830   1.381       .  S
C826        F831   1.383       .  S
C826        F832   1.385       .  S
C833        C834   1.405   1_554  A
C833        C838   1.407       .  A
C833        H840   1.083       .  S
C834        C835   1.416       .  A
C835        C836   1.409       .  A
C835        C842   1.510       .  S
C836        C837   1.403   1_556  A
C836        H841   1.085       .  S
C837        C838   1.413       .  A
C838        C839   1.515       .  S
C839        F843   1.385       .  S
C839        F844   1.378       .  S
C839        F845   1.383       .  S
C842        F846   1.381       .  S
C842        F847   1.381       .  S
C842        F848   1.384       .  S
C849        C850   1.403       .  A
C849        C854   1.398       .  A
C849        H856   1.082       .  S
C850        C851   1.422       .  A
C851        C852   1.418       .  A
C851        C858   1.517       .  S
C852        C853   1.406       .  A
C852        H857   1.083       .  S
C853        C854   1.414       .  A
C854        C855   1.510   1_655  S
C855        F859   1.384       .  S
C855        F860   1.382       .  S
C855        F861   1.374       .  S
C858        F862   1.383       .  S
C858        F863   1.383       .  S
C858        F864   1.385       .  S
C865        C866   1.403       .  A
C865        C870   1.413       .  A
C865        H872   1.083       .  S
C866        C867   1.413   1_556  A
C867        C868   1.398       .  A
C867        C874   1.508       .  S
C868        C869   1.398       .  A
C868        H873   1.086       .  S
C869        C870   1.415   1_554  A
C870        C871   1.512       .  S
C871        F875   1.384       .  S
C871        F876   1.378       .  S
C871        F877   1.383       .  S
C874        F878   1.383       .  S
C874        F879   1.383       .  S
C874        F880   1.385       .  S
C881        C882   1.401       .  A
C881        C886   1.405       .  A
C881        H888   1.076       .  S
C882        C883   1.417       .  A
C883        C884   1.420       .  A
C883        C890   1.515       .  S
C884        C885   1.408       .  A
C884        H889   1.082       .  S
C885        C886   1.416       .  A
C886        C887   1.516       .  S
C887        F891   1.384   1_556  S
C887        F892   1.382   1_556  S
C887        F893   1.380       .  S
C890        F894   1.379       .  S
C890        F895   1.383       .  S
C890        F896   1.384       .  S
C897        C898   1.409       .  A
C897        C902   1.402       .  A
C897        H904   1.081       .  S
C898        C899   1.423       .  A
C899        C900   1.405       .  A
C899        C906   1.523       .  S
C900        C901   1.404       .  A
C900        H905   1.083       .  S
C901        C902   1.415       .  A
C902        C903   1.519       .  S
C903        F907   1.385       .  S
C903        F908   1.383       .  S
C903        F909   1.383       .  S
C906        F910   1.381       .  S
C906        F911   1.383       .  S
C906        F912   1.385       .  S
C913        C914   1.413       .  A
C913        C918   1.412       .  A
C913        H920   1.083       .  S
C914        C915   1.432       .  A
C915        C916   1.396       .  A
C915        C922   1.529       .  S
C916        C917   1.395       .  A
C916        H921   1.083       .  S
C917        C918   1.408       .  A
C918        C919   1.514       .  S
C919        F923   1.384       .  S
C919        F924   1.383       .  S
C919        F925   1.382       .  S
C922        F926   1.383       .  S
C922        F927   1.383       .  S
C922        F928   1.386       .  S
C929        C930   1.399       .  A
C929        C934   1.409       .  A
C929        H936   1.083       .  S
C930        C931   1.413       .  A
C931        C932   1.413       .  A
C931        C938   1.517   1_455  S
C932        C933   1.405       .  A
C932        H937   1.082   1_455  S
C933        C934   1.420       .  A
C934        C935   1.514       .  S
C935        F939   1.385       .  S
C935        F940   1.374       .  S
C935        F941   1.383       .  S
C938        F942   1.378       .  S
C938        F943   1.383   1_655  S
C938        F944   1.384       .  S
C945        C946   1.400   1_455  A
C945        C950   1.403       .  A
C945        H952   1.076       .  S
C946        C947   1.414       .  A
C947        C948   1.405       .  A
C947        C954   1.510       .  S
C948        C949   1.399   1_655  A
C948        H953   1.083       .  S
C949        C950   1.411       .  A
C950        C951   1.513       .  S
C951        F955   1.382       .  S
C951        F956   1.383       .  S
C951        F957   1.380       .  S
C954        F958   1.383       .  S
C954        F959   1.383       .  S
C954        F960   1.379       .  S
C961        C962   1.402       .  A
C961        C966   1.410       .  A
C961        H968   1.085       .  S
C962        C963   1.415       .  A
C963        C964   1.398       .  A
C963        C970   1.514       .  S
C964        C965   1.405       .  A
C964        H969   1.085       .  S
C965        C966   1.424       .  A
C966        C967   1.515       .  S
C967        F971   1.384       .  S
C967        F972   1.381       .  S
C967        F973   1.380       .  S
C970        F974   1.385       .  S
C970        F975   1.382       .  S
C970        F976   1.384       .  S
C977        C978   1.405       .  A
C977        C982   1.402       .  A
C977        H984   1.083       .  S
C978        C979   1.427       .  A
C979        C980   1.408       .  A
C979        C986   1.520       .  S
C980        C981   1.399       .  A
C980        H985   1.083       .  S
C981        C982   1.419       .  A
C982        C983   1.521       .  S
C983        F987   1.385       .  S
C983        F988   1.381       .  S
C983        F989   1.382       .  S
C986        F990   1.384       .  S
C986        F991   1.383       .  S
C986        F992   1.385       .  S
C993        C994   1.407       .  A
C993        C998   1.402       .  A
C993       H1000   1.082       .  S
C994        C995   1.426       .  A
C995        C996   1.418       .  A
C995       C1002   1.519       .  S
C996        C997   1.408       .  A
C996       H1001   1.083       .  S
C997        C998   1.421       .  A
C998        C999   1.519       .  S
C999       F1003   1.385       .  S
C999       F1004   1.377       .  S
C999       F1005   1.382       .  S
C1002      F1006   1.382       .  S
C1002      F1007   1.383       .  S
C1002      F1008   1.385       .  S
C1009      C1010   1.405       .  A
C1009      C1014   1.412       .  A
C1009      H1016   1.083       .  S
C1010      C1011   1.417       .  A
C1011      C1012   1.397       .  A
C1011      C1018   1.515       .  S
C1012      C1013   1.397       .  A
C1012      H1017   1.080       .  S
C1013      C1014   1.415       .  A
C1014      C1015   1.516       .  S
C1015      F1019   1.384       .  S
C1015      F1020   1.383       .  S
C1015      F1021   1.383       .  S
C1018      F1022   1.383       .  S
C1018      F1023   1.375       .  S
C1018      F1024   1.384       .  S
C1025      C1026   1.409   1_554  A
C1025      C1030   1.408       .  A
C1025      H1032   1.083       .  S
C1026      C1027   1.421       .  A
C1027      C1028   1.408   1_556  A
C1027      C1034   1.519       .  S
C1028      C1029   1.403       .  A
C1028      H1033   1.083       .  S
C1029      C1030   1.414       .  A
C1030      C1031   1.518       .  S
C1031      F1035   1.385       .  S
C1031      F1036   1.382       .  S
C1031      F1037   1.383       .  S
C1034      F1038   1.385       .  S
C1034      F1039   1.382       .  S
C1034      F1040   1.383       .  S
C1041      C1042   1.405       .  A
C1041      C1046   1.413       .  A
C1041      H1048   1.083       .  S
C1042      C1043   1.414       .  A
C1043      C1044   1.414       .  A
C1043      C1050   1.516       .  S
C1044      C1045   1.409       .  A
C1044      H1049   1.083       .  S
C1045      C1046   1.417       .  A
C1046      C1047   1.517       .  S
C1047      F1051   1.385       .  S
C1047      F1052   1.382       .  S
C1047      F1053   1.383   1_554  S
C1050      F1054   1.383       .  S
C1050      F1055   1.383       .  S
C1050      F1056   1.385       .  S
C1057      C1058   1.408       .  A
C1057      C1062   1.418       .  A
C1057      H1064   1.083       .  S
C1058      C1059   1.414       .  A
C1059      C1060   1.390       .  A
C1059      C1066   1.525       .  S
C1060      C1061   1.410       .  A
C1060      H1065   1.081       .  S
C1061      C1062   1.420       .  A
C1062      C1063   1.516       .  S
C1063      F1067   1.378       .  S
C1063      F1068   1.384       .  S
C1063      F1069   1.385       .  S
C1066      F1070   1.381       .  S
C1066      F1071   1.380       .  S
C1066      F1072   1.385       .  S
C1073      C1074   1.405       .  A
C1073      C1078   1.413       .  A
C1073      H1080   1.083       .  S
C1074      C1075   1.419   1_556  A
C1075      C1076   1.408       .  A
C1075      C1082   1.517       .  S
C1076      C1077   1.400       .  A
C1076      H1081   1.077       .  S
C1077      C1078   1.416   1_554  A
C1078      C1079   1.511       .  S
C1079      F1083   1.384       .  S
C1079      F1084   1.383       .  S
C1079      F1085   1.382       .  S
C1082      F1086   1.384       .  S
C1082      F1087   1.383       .  S
C1082      F1088   1.384       .  S
C1089      C1090   1.396       .  A
C1089      C1094   1.403       .  A
C1089      H1096   1.084       .  S
C1090      C1091   1.421       .  A
C1091      C1092   1.412       .  A
C1091      C1098   1.514       .  S
C1092      C1093   1.401       .  A
C1092      H1097   1.082       .  S
C1093      C1094   1.417       .  A
C1094      C1095   1.511       .  S
C1095      F1099   1.377       .  S
C1095      F1100   1.383       .  S
C1095      F1101   1.383       .  S
C1098      F1102   1.383       .  S
C1098      F1103   1.376       .  S
C1098      F1104   1.384       .  S
C1105      C1106   1.406       .  A
C1105      C1110   1.407       .  A
C1105      H1112   1.083       .  S
C1106      C1107   1.420       .  A
C1107      C1108   1.412       .  A
C1107      C1114   1.519       .  S
C1108      C1109   1.406       .  A
C1108      H1113   1.083       .  S
C1109      C1110   1.418       .  A
C1110      C1111   1.520       .  S
C1111      F1115   1.385       .  S
C1111      F1116   1.381       .  S
C1111      F1117   1.384       .  S
C1114      F1118   1.381       .  S
C1114      F1119   1.383       .  S
C1114      F1120   1.385       .  S
C1121      C1122   1.391       .  A
C1121      C1126   1.394       .  A
C1121      H1128   1.057       .  S
C1122      C1123   1.418   1_565  A
C1123      C1124   1.417       .  A
C1123      C1130   1.514       .  S
C1124      C1125   1.407       .  A
C1124      H1129   1.080       .  S
C1125      C1126   1.421   1_545  A
C1126      C1127   1.509       .  S
C1127      F1131   1.384       .  S
C1127      F1132   1.383       .  S
C1127      F1133   1.377       .  S
C1130      F1134   1.383       .  S
C1130      F1135   1.381       .  S
C1130      F1136   1.384       .  S
C1137      C1138   1.406       .  A
C1137      C1142   1.417       .  A
C1137      H1144   1.083       .  S
C1138      C1139   1.420       .  A
C1139      C1140   1.412       .  A
C1139      C1146   1.520   1_556  S
C1140      C1141   1.409       .  A
C1140      H1145   1.082       .  S
C1141      C1142   1.427       .  A
C1142      C1143   1.519       .  S
C1143      F1147   1.385       .  S
C1143      F1148   1.384       .  S
C1143      F1149   1.383       .  S
C1146      F1150   1.383       .  S
C1146      F1151   1.382   1_554  S
C1146      F1152   1.385   1_554  S
C1153      C1154   1.404       .  A
C1153      C1158   1.389       .  A
C1153      H1160   1.081       .  S
C1154      C1155   1.421       .  A
C1155      C1156   1.414       .  A
C1155      C1162   1.515       .  S
C1156      C1157   1.404       .  A
C1156      H1161   1.082       .  S
C1157      C1158   1.419       .  A
C1158      C1159   1.527   1_556  S
C1159      F1163   1.385       .  S
C1159      F1164   1.381   1_554  S
C1159      F1165   1.376       .  S
C1162      F1166   1.383       .  S
C1162      F1167   1.382       .  S
C1162      F1168   1.384       .  S
C1169      C1170   1.405       .  A
C1169      C1174   1.418       .  A
C1169      H1176   1.083       .  S
C1170      C1171   1.413   1_565  A
C1171      C1172   1.399       .  A
C1171      C1178   1.513       .  S
C1172      C1173   1.401       .  A
C1172      H1177   1.079       .  S
C1173      C1174   1.424   1_545  A
C1174      C1175   1.517       .  S
C1175      F1179   1.385       .  S
C1175      F1180   1.377       .  S
C1175      F1181   1.383       .  S
C1178      F1182   1.382       .  S
C1178      F1183   1.384       .  S
C1178      F1184   1.384       .  S
C1185      C1186   1.406       .  A
C1185      C1190   1.416       .  A
C1185      H1192   1.084       .  S
C1186      C1187   1.415       .  A
C1187      C1188   1.410       .  A
C1187      C1194   1.515       .  S
C1188      C1189   1.403       .  A
C1188      H1193   1.084       .  S
C1189      C1190   1.420       .  A
C1190      C1191   1.517   1_565  S
C1191      F1195   1.383       .  S
C1191      F1196   1.382       .  S
C1191      F1197   1.380       .  S
C1194      F1198   1.384       .  S
C1194      F1199   1.379       .  S
C1194      F1200   1.384       .  S
C1201      C1202   1.403       .  A
C1201      C1206   1.417       .  A
C1201      H1208   1.081       .  S
C1202      C1203   1.411       .  A
C1203      C1204   1.409       .  A
C1203      C1210   1.517       .  S
C1204      C1205   1.414       .  A
C1204      H1209   1.082       .  S
C1205      C1206   1.428       .  A
C1206      C1207   1.519       .  S
C1207      F1211   1.385       .  S
C1207      F1212   1.383       .  S
C1207      F1213   1.384       .  S
C1210      F1214   1.380       .  S
C1210      F1215   1.383       .  S
C1210      F1216   1.385       .  S
C1217      C1218   1.405       .  A
C1217      C1222   1.393       .  A
C1217      H1224   1.081       .  S
C1218      C1219   1.425       .  A
C1219      C1220   1.417       .  A
C1219      C1226   1.519       .  S
C1220      C1221   1.404       .  A
C1220      H1225   1.082       .  S
C1221      C1222   1.418       .  A
C1222      C1223   1.522       .  S
C1223      F1227   1.385       .  S
C1223      F1228   1.379       .  S
C1223      F1229   1.376       .  S
C1226      F1230   1.381       .  S
C1226      F1231   1.383       .  S
C1226      F1232   1.385       .  S
C1233      C1234   1.405       .  A
C1233      C1238   1.410       .  A
C1233      H1240   1.083       .  S
C1234      C1235   1.415       .  A
C1235      C1236   1.410       .  A
C1235      C1242   1.511   1_554  S
C1236      C1237   1.403       .  A
C1236      H1241   1.083       .  S
C1237      C1238   1.416       .  A
C1238      C1239   1.518       .  S
C1239      F1243   1.385       .  S
C1239      F1244   1.382       .  S
C1239      F1245   1.380       .  S
C1242      F1246   1.385       .  S
C1242      F1247   1.383       .  S
C1242      F1248   1.382       .  S
C1249      C1250   1.409   1_556  A
C1249      C1254   1.419       .  A
C1249      H1256   1.083       .  S
C1250      C1251   1.422       .  A
C1251      C1252   1.402       .  A
C1251      C1258   1.522       .  S
C1252      C1253   1.398   1_554  A
C1252      H1257   1.081       .  S
C1253      C1254   1.415       .  A
C1254      C1255   1.513       .  S
C1255      F1259   1.385       .  S
C1255      F1260   1.383       .  S
C1255      F1261   1.381       .  S
C1258      F1262   1.378       .  S
C1258      F1263   1.381       .  S
C1258      F1264   1.384       .  S
C1265      C1266   1.405       .  A
C1265      C1270   1.412       .  A
C1265      H1272   1.083       .  S
C1266      C1267   1.413       .  A
C1267      C1268   1.403       .  A
C1267      C1274   1.518       .  S
C1268      C1269   1.402       .  A
C1268      H1273   1.082       .  S
C1269      C1270   1.418       .  A
C1270      C1271   1.517       .  S
C1271      F1275   1.385       .  S
C1271      F1276   1.383       .  S
C1271      F1277   1.380       .  S
C1274      F1278   1.383       .  S
C1274      F1279   1.380   1_556  S
C1274      F1280   1.384       .  S
C1281      C1282   1.403       .  A
C1281      C1286   1.398       .  A
C1281      H1288   1.085       .  S
C1282      C1283   1.422       .  A
C1283      C1284   1.418       .  A
C1283      C1290   1.513       .  S
C1284      C1285   1.406       .  A
C1284      H1289   1.083       .  S
C1285      C1286   1.413       .  A
C1286      C1287   1.510       .  S
C1287      F1291   1.384       .  S
C1287      F1292   1.382       .  S
C1287      F1293   1.384       .  S
C1290      F1294   1.376       .  S
C1290      F1295   1.384       .  S
C1290      F1296   1.384       .  S
C1297      C1298   1.406   1_455  A
C1297      C1302   1.416       .  A
C1297      H1304   1.083       .  S
C1298      C1299   1.416       .  A
C1299      C1300   1.404       .  A
C1299      C1306   1.519       .  S
C1300      C1301   1.402   1_655  A
C1300      H1305   1.082       .  S
C1301      C1302   1.418       .  A
C1302      C1303   1.517       .  S
C1303      F1307   1.384       .  S
C1303      F1308   1.383       .  S
C1303      F1309   1.383       .  S
C1306      F1310   1.382       .  S
C1306      F1311   1.380       .  S
C1306      F1312   1.384       .  S
C1313      C1314   1.398       .  A
C1313      C1318   1.409       .  A
C1313      H1320   1.083       .  S
C1314      C1315   1.411       .  A
C1315      C1316   1.407       .  A
C1315      C1322   1.512       .  S
C1316      C1317   1.408       .  A
C1316      H1321   1.083       .  S
C1317      C1318   1.431       .  A
C1318      C1319   1.523       .  S
C1319      F1323   1.383       .  S
C1319      F1324   1.381       .  S
C1319      F1325   1.385       .  S
C1322      F1326   1.381       .  S
C1322      F1327   1.378       .  S
C1322      F1328   1.384       .  S
C1329      C1330   1.406       .  A
C1329      C1334   1.410       .  A
C1329      H1336   1.084       .  S
C1330      C1331   1.432       .  A
C1331      C1332   1.411       .  A
C1331      C1338   1.522       .  S
C1332      C1333   1.397       .  A
C1332      H1337   1.084       .  S
C1333      C1334   1.419       .  A
C1334      C1335   1.518       .  S
C1335      F1339   1.384       .  S
C1335      F1340   1.383       .  S
C1335      F1341   1.382       .  S
C1338      F1342   1.382       .  S
C1338      F1343   1.377       .  S
C1338      F1344   1.385       .  S
C1345      C1346   1.405       .  A
C1345      C1350   1.417       .  A
C1345      H1352   1.083       .  S
C1346      C1347   1.416       .  A
C1347      C1348   1.407       .  A
C1347      C1354   1.514       .  S
C1348      C1349   1.402       .  A
C1348      H1353   1.083       .  S
C1349      C1350   1.419       .  A
C1350      C1351   1.516       .  S
C1351      F1355   1.381       .  S
C1351      F1356   1.384       .  S
C1351      F1357   1.379       .  S
C1354      F1358   1.381       .  S
C1354      F1359   1.382       .  S
C1354      F1360   1.384       .  S
C1361      C1362   1.410       .  A
C1361      C1366   1.401       .  A
C1361      H1368   1.082       .  S
C1362      C1363   1.419       .  A
C1363      C1364   1.415       .  A
C1363      C1370   1.518       .  S
C1364      C1365   1.411       .  A
C1364      H1369   1.083       .  S
C1365      C1366   1.414       .  A
C1366      C1367   1.517   1_545  S
C1367      F1371   1.385       .  S
C1367      F1372   1.383       .  S
C1367      F1373   1.383   1_565  S
C1370      F1374   1.383       .  S
C1370      F1375   1.383       .  S
C1370      F1376   1.385       .  S
C1377      C1378   1.408       .  A
C1377      C1382   1.407   1_545  A
C1377      H1384   1.083   1_545  S
C1378      C1379   1.421       .  A
C1379      C1380   1.414       .  A
C1379      C1386   1.518       .  S
C1380      C1381   1.403   1_545  A
C1380      H1385   1.082       .  S
C1381      C1382   1.412       .  A
C1382      C1383   1.518       .  S
C1383      F1387   1.384       .  S
C1383      F1388   1.383       .  S
C1383      F1389   1.383       .  S
C1386      F1390   1.382       .  S
C1386      F1391   1.383       .  S
C1386      F1392   1.385       .  S
C1393      C1394   1.400       .  A
C1393      C1398   1.411       .  A
C1393      H1400   1.083       .  S
C1394      C1395   1.418   1_455  A
C1395      C1396   1.392   1_655  A
C1395      C1402   1.517       .  S
C1396      C1397   1.401       .  A
C1396      H1401   1.082   1_455  S
C1397      C1398   1.423       .  A
C1398      C1399   1.517       .  S
C1399      F1403   1.384       .  S
C1399      F1404   1.384       .  S
C1399      F1405   1.383       .  S
C1402      F1406   1.379       .  S
C1402      F1407   1.372       .  S
C1402      F1408   1.386       .  S
C1409      C1410   1.411       .  A
C1409      C1414   1.410       .  A
C1409      H1416   1.082       .  S
C1410      C1411   1.423       .  A
C1411      C1412   1.408       .  A
C1411      C1418   1.521       .  S
C1412      C1413   1.405       .  A
C1412      H1417   1.083       .  S
C1413      C1414   1.419       .  A
C1414      C1415   1.521   1_655  S
C1415      F1419   1.385       .  S
C1415      F1420   1.384       .  S
C1415      F1421   1.383   1_455  S
C1418      F1422   1.383       .  S
C1418      F1423   1.383       .  S
C1418      F1424   1.384       .  S
C1425      C1426   1.394       .  A
C1425      C1430   1.395       .  A
C1425      H1432   1.085       .  S
C1426      C1427   1.418   1_545  A
C1427      C1428   1.419       .  A
C1427      C1434   1.516       .  S
C1428      C1429   1.407       .  A
C1428      H1433   1.083       .  S
C1429      C1430   1.417   1_565  A
C1430      C1431   1.507       .  S
C1431      F1435   1.384       .  S
C1431      F1436   1.384       .  S
C1431      F1437   1.383       .  S
C1434      F1438   1.384       .  S
C1434      F1439   1.381       .  S
C1434      F1440   1.383       .  S
C1441      C1442   1.400       .  A
C1441      C1446   1.410       .  A
C1441      H1448   1.084       .  S
C1442      C1443   1.411   1_655  A
C1443      C1444   1.404   1_455  A
C1443      C1450   1.517       .  S
C1444      C1445   1.407       .  A
C1444      H1449   1.083       .  S
C1445      C1446   1.423       .  A
C1446      C1447   1.518       .  S
C1447      F1451   1.385       .  S
C1447      F1452   1.382       .  S
C1447      F1453   1.383       .  S
C1450      F1454   1.383       .  S
C1450      F1455   1.383       .  S
C1450      F1456   1.384       .  S
C1457      C1458   1.403       .  A
C1457      C1462   1.408       .  A
C1457      H1464   1.084       .  S
C1458      C1459   1.412       .  A
C1459      C1460   1.403       .  A
C1459      C1466   1.515       .  S
C1460      C1461   1.403       .  A
C1460      H1465   1.082       .  S
C1461      C1462   1.417       .  A
C1462      C1463   1.512       .  S
C1463      F1467   1.383       .  S
C1463      F1468   1.379       .  S
C1463      F1469   1.379       .  S
C1466      F1470   1.384       .  S
C1466      F1471   1.383       .  S
C1466      F1472   1.378       .  S
C1473      C1474   1.411       .  A
C1473      C1478   1.406       .  A
C1473      H1480   1.082       .  S
C1474      C1475   1.422       .  A
C1475      C1476   1.414       .  A
C1475      C1482   1.519       .  S
C1476      C1477   1.407       .  A
C1476      H1481   1.083       .  S
C1477      C1478   1.419       .  A
C1478      C1479   1.523       .  S
C1479      F1483   1.385       .  S
C1479      F1484   1.384       .  S
C1479      F1485   1.382       .  S
C1482      F1486   1.383       .  S
C1482      F1487   1.383       .  S
C1482      F1488   1.385       .  S
C1489      C1490   1.406       .  A
C1489      C1494   1.418   1_655  A
C1489      H1496   1.082   1_655  S
C1490      C1491   1.408       .  A
C1491      C1492   1.398       .  A
C1491      C1498   1.515       .  S
C1492      C1493   1.411       .  A
C1492      H1497   1.085       .  S
C1493      C1494   1.420   1_655  A
C1494      C1495   1.515       .  S
C1495      F1499   1.384       .  S
C1495      F1500   1.383       .  S
C1495      F1501   1.384       .  S
C1498      F1502   1.383       .  S
C1498      F1503   1.384       .  S
C1498      F1504   1.383       .  S
C1505      C1506   1.407       .  A
C1505      C1510   1.404       .  A
C1505      H1512   1.082       .  S
C1506      C1507   1.432   1_565  A
C1507      C1508   1.408       .  A
C1507      C1514   1.522       .  S
C1508      C1509   1.397       .  A
C1508      H1513   1.083       .  S
C1509      C1510   1.413   1_545  A
C1510      C1511   1.514       .  S
C1511      F1515   1.385       .  S
C1511      F1516   1.382       .  S
C1511      F1517   1.381       .  S
C1514      F1518   1.384   1_545  S
C1514      F1519   1.383       .  S
C1514      F1520   1.385       .  S
C1521      C1522   1.396       .  A
C1521      C1526   1.400       .  A
C1521      H1528   1.083   1_565  S
C1522      C1523   1.410       .  A
C1523      C1524   1.415       .  A
C1523      C1530   1.514       .  S
C1524      C1525   1.415       .  A
C1524      H1529   1.082       .  S
C1525      C1526   1.431       .  A
C1526      C1527   1.527   1_565  S
C1527      F1531   1.385       .  S
C1527      F1532   1.383       .  S
C1527      F1533   1.383   1_545  S
C1530      F1534   1.382       .  S
C1530      F1535   1.381       .  S
C1530      F1536   1.385       .  S
C1537      C1538   1.403   1_455  A
C1537      C1542   1.410       .  A
C1537      H1544   1.084       .  S
C1538      C1539   1.414       .  A
C1539      C1540   1.403       .  A
C1539      C1546   1.512       .  S
C1540      C1541   1.398       .  A
C1540      H1545   1.082       .  S
C1541      C1542   1.414   1_655  A
C1542      C1543   1.508       .  S
C1543      F1547   1.384       .  S
C1543      F1548   1.382       .  S
C1543      F1549   1.380       .  S
C1546      F1550   1.382       .  S
C1546      F1551   1.381       .  S
C1546      F1552   1.381       .  S
C1553      C1554   1.400       .  A
C1553      C1558   1.402       .  A
C1553      H1560   1.085   1_655  S
C1554      C1555   1.418       .  A
C1555      C1556   1.415       .  A
C1555      C1562   1.518       .  S
C1556      C1557   1.405       .  A
C1556      H1561   1.083       .  S
C1557      C1558   1.415       .  A
C1558      C1559   1.512   1_655  S
C1559      F1563   1.383       .  S
C1559      F1564   1.384       .  S
C1559      F1565   1.382       .  S
C1562      F1566   1.382       .  S
C1562      F1567   1.383       .  S
C1562      F1568   1.384       .  S
C1569      C1570   1.408       .  A
C1569      C1574   1.403       .  A
C1569      H1576   1.082       .  S
C1570      C1571   1.430   1_455  A
C1571      C1572   1.410       .  A
C1571      C1578   1.523       .  S
C1572      C1573   1.401       .  A
C1572      H1577   1.083       .  S
C1573      C1574   1.411   1_655  A
C1574      C1575   1.517       .  S
C1575      F1579   1.384       .  S
C1575      F1580   1.384       .  S
C1575      F1581   1.382       .  S
C1578      F1582   1.385       .  S
C1578      F1583   1.384       .  S
C1578      F1584   1.383       .  S
C1585      C1586   1.405       .  A
C1585      C1590   1.408       .  A
C1585      H1592   1.083       .  S
C1586      C1587   1.426       .  A
C1587      C1588   1.405       .  A
C1587      C1594   1.521       .  S
C1588      C1589   1.400       .  A
C1588      H1593   1.083       .  S
C1589      C1590   1.422       .  A
C1590      C1591   1.521       .  S
C1591      F1595   1.385       .  S
C1591      F1596   1.384       .  S
C1591      F1597   1.382       .  S
C1594      F1598   1.382       .  S
C1594      F1599   1.383       .  S
C1594      F1600   1.385       .  S
C1601      C1602   1.401       .  A
C1601      C1606   1.413       .  A
C1601      H1608   1.082       .  S
C1602      C1603   1.410       .  A
C1603      C1604   1.399       .  A
C1603      C1610   1.512       .  S
C1604      C1605   1.406       .  A
C1604      H1609   1.082       .  S
C1605      C1606   1.423       .  A
C1606      C1607   1.513       .  S
C1607      F1611   1.385       .  S
C1607      F1612   1.378       .  S
C1607      F1613   1.383       .  S
C1610      F1614   1.381       .  S
C1610      F1615   1.380       .  S
C1610      F1616   1.385       .  S
C1617      C1618   1.400       .  A
C1617      C1622   1.400       .  A
C1617      H1624   1.082   1_545  S
C1618      C1619   1.418       .  A
C1619      C1620   1.420       .  A
C1619      C1626   1.517       .  S
C1620      C1621   1.409       .  A
C1620      H1625   1.083       .  S
C1621      C1622   1.416       .  A
C1622      C1623   1.515   1_545  S
C1623      F1627   1.384       .  S
C1623      F1628   1.382       .  S
C1623      F1629   1.382       .  S
C1626      F1630   1.381       .  S
C1626      F1631   1.383       .  S
C1626      F1632   1.384       .  S
C1633      C1634   1.403   1_565  A
C1633      C1638   1.401       .  A
C1633      H1640   1.085       .  S
C1634      C1635   1.419       .  A
C1635      C1636   1.407       .  A
C1635      C1642   1.513       .  S
C1636      C1637   1.404   1_545  A
C1636      H1641   1.085       .  S
C1637      C1638   1.414       .  A
C1638      C1639   1.512       .  S
C1639      F1643   1.383       .  S
C1639      F1644   1.380       .  S
C1639      F1645   1.381       .  S
C1642      F1646   1.379       .  S
C1642      F1647   1.383       .  S
C1642      F1648   1.383       .  S
C1649      C1650   1.414   1_545  A
C1649      C1654   1.406       .  A
C1649      H1656   1.082       .  S
C1650      C1651   1.425       .  A
C1651      C1652   1.414       .  A
C1651      C1658   1.519       .  S
C1652      C1653   1.404       .  A
C1652      H1657   1.083       .  S
C1653      C1654   1.411   1_565  A
C1654      C1655   1.521       .  S
C1655      F1659   1.385       .  S
C1655      F1660   1.383       .  S
C1655      F1661   1.382       .  S
C1658      F1662   1.383       .  S
C1658      F1663   1.384       .  S
C1658      F1664   1.385       .  S
C1665      C1666   1.402       .  A
C1665      C1670   1.417       .  A
C1665      H1672   1.083       .  S
C1666      C1667   1.413       .  A
C1667      C1668   1.400       .  A
C1667      C1674   1.511       .  S
C1668      C1669   1.404       .  A
C1668      H1673   1.084       .  S
C1669      C1670   1.427       .  A
C1670      C1671   1.517       .  S
C1671      F1675   1.385       .  S
C1671      F1676   1.380       .  S
C1671      F1677   1.383       .  S
C1674      F1678   1.382       .  S
C1674      F1679   1.380       .  S
C1674      F1680   1.382       .  S
