geometry optimzed in LAMMPS
_audit_creation_date              2020-12-01 
_audit_creation_method            'lammps2cif' 
_symmetry_space_group_name_H-M    'P1' 
_symmetry_Int_Tables_number       1 
_symmetry_cell_setting            triclinic 
loop_ 
_symmetry_equiv_pos_as_xyz 
  x,y,z 
_cell_length_a                    37.67915504 
_cell_length_b                    43.020509669151174 
_cell_length_c                    22.81047342981039 
_cell_angle_alpha                 89.0886352194731 
_cell_angle_beta                  88.96392162868482 
_cell_angle_gamma                 91.09764710349302 
loop_ 
_atom_site_label 
_atom_site_type_symbol 
_atom_site_fract_x 
_atom_site_fract_y 
_atom_site_fract_z 
_atom_site_charge 
O1          O  0.63574438  0.97208093  0.12152291    -0.79800
O2          O  0.64592944  0.82368890  0.11313445    -0.64400
O3          O  0.61428906  0.90860206  0.11228408    -1.11000
C4          C  0.62046768  0.89158119  0.31903433     1.07100
O5          O  0.59822881  0.81586899  0.16915246    -0.77700
O6          O  0.55954720  0.85480540  0.23366143    -0.65200
Ni7        Ni  0.63455825  0.94071681  0.06267737     1.34900
C8          C  0.54710380  0.88066800  0.21732478     0.85900
O9          O  0.63104228  0.86418590  0.02600241    -0.78200
O10         O  0.63490236  0.91412048  0.99666615    -0.88500
C11         C  0.62288691  0.80512842  0.13710540     0.85400
O12         O  0.68194455  0.93136975  0.08079857    -0.66700
O13         O  0.61570327  0.86269712  0.30823036    -0.86000
C14         C  0.69801188  0.90698945  0.09590711     0.86300
C15         C  0.63275388  0.88523884  0.98627291     1.07800
H16         H  0.65684033  0.87037896  0.20544072     0.39600
O17         O  0.63253898  0.87064995  0.19251480    -1.08600
O18         O  0.56683369  0.90350727  0.20144069    -0.65300
Ni19       Ni  0.61710450  0.91194433  0.19600983     1.26300
O20         O  0.68248715  0.88045893  0.10556386    -0.65500
O21         O  0.62063112  0.91310018  0.27979853    -0.77800
C22         C  0.61940009  0.97565734  0.16982908     0.85700
O23         O  0.60372754  0.95377158  0.19772684    -0.65000
Ni24       Ni  0.60718862  0.83990742  0.23766170     1.27400
Ni25       Ni  0.63234802  0.86702223  0.10949873     1.26100
H26         H  0.58962260  0.90711837  0.10164143     0.40200
O27         O  0.63572811  0.97259506  0.63080715    -0.79800
O28         O  0.65436621  0.82699416  0.60545714    -0.64400
O29         O  0.61659230  0.90941623  0.61375352    -1.11000
C30         C  0.62784231  0.88860744  0.81911163     1.07100
O31         O  0.61175505  0.81420506  0.66800363    -0.77700
O32         O  0.57354469  0.84779569  0.74073409    -0.65200
Ni33       Ni  0.63654915  0.94299928  0.56761305     1.34900
C34         C  0.55555955  0.87045122  0.72286433     0.85900
O35         O  0.63222668  0.86753359  0.52422049    -0.78200
O36         O  0.63730030  0.91797261  0.49790586    -0.88500
C37         C  0.63577112  0.80611436  0.63213490     0.85400
O38         O  0.68506692  0.93452248  0.58430144    -0.66700
O39         O  0.63118153  0.86004334  0.80611316    -0.86000
C40         C  0.70161642  0.90945596  0.59324797     0.86300
C41         C  0.63355482  0.88922199  0.48575888     1.07800
H42         H  0.66465238  0.87430888  0.70009422     0.39600
O43         O  0.63998617  0.87170207  0.69002999    -1.08600
O44         O  0.56968834  0.89567506  0.70247347    -0.65300
Ni45       Ni  0.61875605  0.91098732  0.69771807     1.26300
O46         O  0.68604901  0.88295592  0.59891914    -0.65500
O47         O  0.62178838  0.91030815  0.78182145    -0.77800
C48         C  0.61641509  0.97541530  0.67681429     0.85700
O49         O  0.60092080  0.95223635  0.70224848    -0.65000
Ni50       Ni  0.62227364  0.83773089  0.73603954     1.27400
Ni51       Ni  0.63686522  0.86891370  0.60703249     1.26100
H52         H  0.59203744  0.90755011  0.60263900     0.40200
O53         O  0.85320455  0.96714985  0.05235448    -0.79800
O54         O  0.85755214  0.82486435  0.10303061    -0.64400
O55         O  0.88424178  0.91022951  0.08430136    -1.11000
C56         C  0.88171137  0.88419061  0.88139794     1.07100
O57         O  0.90161946  0.81290238  0.04386411    -0.77700
O58         O  0.93995273  0.85229279  0.97371853    -0.65200
Ni59       Ni  0.85713862  0.94135368  0.12282678     1.34900
C60         C  0.95346648  0.87857741  0.98615289     0.85900
O61         O  0.87231390  0.86949701  0.17847871    -0.78200
O62         O  0.86052049  0.91948677  0.19763980    -0.88500
C63         C  0.87699921  0.80470480  0.08012216     0.85400
O64         O  0.81050885  0.92397382  0.11011169    -0.66700
O65         O  0.88463650  0.85581339  0.89779689    -0.86000
C66         C  0.79933447  0.89614145  0.10355540     0.86300
C67         C  0.86740015  0.89164482  0.21378367     1.07800
H68         H  0.84437020  0.86630170  0.00012642     0.39600
O69         O  0.86882149  0.86764771  0.01205262    -1.08600
O70         O  0.93473387  0.90181769  0.99951836    -0.65300
Ni71       Ni  0.88418575  0.90958217  0.00055355     1.26300
O72         O  0.81994847  0.87343855  0.09884653    -0.65500
O73         O  0.88268861  0.90717855  0.91636508    -0.77800
C74         C  0.87750071  0.97346286  0.01395908     0.85700
O75         O  0.89729580  0.95250211  0.99379691    -0.65000
Ni76       Ni  0.89276223  0.83552999  0.97208114     1.27400
Ni77       Ni  0.87023655  0.86773367  0.09558341     1.26100
H78         H  0.90837281  0.91259120  0.09735889     0.40200
O79         O  0.85807467  0.96583156  0.57526502    -0.79800
O80         O  0.86206262  0.81736166  0.58715244    -0.64400
O81         O  0.88645780  0.90547926  0.58851117    -1.11000
C82         C  0.87815809  0.89376687  0.38094902     1.07100
O83         O  0.90552928  0.81442763  0.52247869    -0.77700
O84         O  0.93863074  0.85671981  0.45546516    -0.65200
Ni85       Ni  0.86065037  0.93386006  0.63551647     1.34900
C86         C  0.95321025  0.88049424  0.47741732     0.85900
O87         O  0.87710035  0.85818691  0.67453889    -0.78200
O88         O  0.86248028  0.90625846  0.70245151    -0.88500
C89         C  0.88317881  0.80095380  0.55671004     0.85400
O90         O  0.81441001  0.91907795  0.61494990    -0.66700
O91         O  0.87913169  0.86449091  0.39110098    -0.86000
C92         C  0.80204124  0.89200530  0.60496407     0.86300
C93         C  0.87146539  0.87839764  0.71389061     1.07800
H94         H  0.84443794  0.86813354  0.49776612     0.39600
O95         O  0.86921870  0.86850264  0.50795400    -1.08600
O96         O  0.93540385  0.90231442  0.50013116    -0.65300
Ni97       Ni  0.88487081  0.91084340  0.50493941     1.26300
O98         O  0.82168313  0.86831989  0.59937666    -0.65500
O99         O  0.88205983  0.91426395  0.42050094    -0.77800
C100        C  0.87951013  0.97406545  0.53387526     0.85700
O101        O  0.89787307  0.95429367  0.50628718    -0.65000
Ni102      Ni  0.89158680  0.83992544  0.45790207     1.27400
Ni103      Ni  0.87257507  0.86206231  0.59090424     1.26100
H104        H  0.91085353  0.90695400  0.60065091     0.40200
O105        O  0.87714712  0.05407261  0.39065616    -0.79800
O106        O  0.84447033  0.20058674  0.36767140    -0.64400
O107        O  0.88297171  0.11900488  0.38690197    -1.11000
C108        C  0.86159664  0.13544958  0.58886474     1.07100
O109        O  0.87360492  0.22060444  0.44252982    -0.77700
O110        O  0.91974418  0.18032297  0.49191290    -0.65200
Ni111      Ni  0.86627269  0.08687878  0.33622782     1.34900
C112        C  0.93553914  0.15448464  0.49120291     0.85900
O113        O  0.87343111  0.16138565  0.29444597    -0.78200
O114        O  0.85495615  0.11398401  0.27159111    -0.88500
C115        C  0.85825753  0.22374459  0.39353190     0.85400
O116        O  0.81962398  0.09039407  0.36788642    -0.66700
O117        O  0.86901562  0.16374022  0.57529891    -0.86000
C118        C  0.80070979  0.11461949  0.36749625     0.86300
C119        C  0.86418217  0.14158179  0.25716731     1.07800
H120        H  0.82747853  0.15569488  0.46512139     0.39600
O121        O  0.85283708  0.15667610  0.45815829    -1.08600
O122        O  0.91918543  0.12832759  0.48765607    -0.65300
Ni123      Ni  0.87078094  0.11560948  0.46957407     1.26300
O124        O  0.81408138  0.14235825  0.36271215    -0.65500
O125        O  0.85799742  0.11423468  0.55109776    -0.77800
C126        C  0.88517076  0.05080059  0.44411100     0.85700
O127        O  0.88632955  0.07340768  0.47943604    -0.65000
Ni128      Ni  0.87098238  0.18961572  0.50544911     1.27400
Ni129      Ni  0.86243628  0.15920429  0.37599569     1.26100
H130        H  0.90841372  0.12106186  0.38140001     0.40200
O131        O  0.83600416  0.06335367  0.91671633    -0.79800
O132        O  0.85841005  0.20591225  0.87236116    -0.64400
O133        O  0.87258820  0.11861753  0.88530323    -1.11000
C134        C  0.86384178  0.13944245  0.08992250     1.07100
O135        O  0.89872951  0.21253202  0.94067629    -0.77700
O136        O  0.92441537  0.17227107  0.01653534    -0.65200
Ni137      Ni  0.84347065  0.08926482  0.84671071     1.34900
C138        C  0.93996026  0.14953094  0.99365673     0.85900
O139        O  0.86793410  0.16103480  0.79325411    -0.78200
O140        O  0.84963114  0.11212990  0.77318059    -0.88500
C141        C  0.88212955  0.22243689  0.89656834     0.85400
O142        O  0.79874136  0.10815202  0.86131945    -0.66700
O143        O  0.86184665  0.16819967  0.07579958    -0.86000
C144        C  0.78918102  0.13619166  0.86622558     0.86300
C145        C  0.86025755  0.13953456  0.75741181     1.07800
H146        H  0.83294451  0.15963104  0.97007581     0.39600
O147        O  0.85795634  0.15936078  0.96005682    -1.08600
O148        O  0.92316354  0.12734502  0.96871489    -0.65300
Ni149      Ni  0.87202368  0.11758885  0.96880737     1.26300
O150        O  0.81147166  0.15868782  0.87029120    -0.65500
O151        O  0.87009198  0.11796242  0.05325210    -0.77800
C152        C  0.85857494  0.05535751  0.95493247     0.85700
O153        O  0.88238194  0.07431778  0.97215009    -0.65000
Ni154      Ni  0.87913356  0.18986900  0.00692746     1.27400
Ni155      Ni  0.86297031  0.16164935  0.87667132     1.26100
H156        H  0.89661096  0.11548390  0.87139213     0.40200
O157        O  0.65361328  0.04626377  0.31738545    -0.79800
O158        O  0.62550654  0.18721064  0.37300265    -0.64400
O159        O  0.61571661  0.09871700  0.35419179    -1.11000
C160        C  0.61643985  0.12776746  0.14936338     1.07100
O161        O  0.58075559  0.18853935  0.31260708    -0.77700
O162        O  0.55331189  0.15023384  0.23423362    -0.65200
Ni163      Ni  0.64654147  0.06934876  0.38863178     1.34900
C164        C  0.54249909  0.12404213  0.25431074     0.85900
O165        O  0.62105746  0.13718866  0.45171377    -0.78200
O166        O  0.64081151  0.08825888  0.46370935    -0.88500
C167        C  0.60180993  0.20257864  0.34631025     0.85400
O168        O  0.68994257  0.09199514  0.37344200    -0.66700
O169        O  0.61281888  0.15605736  0.16490880    -0.86000
C170        C  0.69791331  0.12083905  0.36922555     0.86300
C171        C  0.62976252  0.11381572  0.48406691     1.07800
H172        H  0.64934163  0.14757406  0.26927041     0.39600
O173        O  0.62501374  0.14369268  0.28179195    -1.08600
O174        O  0.56367772  0.10407328  0.27461968    -0.65300
Ni175      Ni  0.61504319  0.10127285  0.27047976     1.26300
O176        O  0.67459034  0.14197769  0.36792268    -0.65500
O177        O  0.61548667  0.10485290  0.18583571    -0.77800
C178        C  0.63083975  0.03954338  0.27881975     0.85700
O179        O  0.60739148  0.05837817  0.26331953    -0.65000
Ni180      Ni  0.59740199  0.17245867  0.23964010     1.27400
Ni181      Ni  0.62292995  0.14212808  0.36670065     1.26100
H182        H  0.59213550  0.09327872  0.36873218     0.40200
O183        O  0.62646877  0.04778576  0.83487356    -0.79800
O184        O  0.62691671  0.19735994  0.86048940    -0.64400
O185        O  0.60517557  0.10973688  0.84688082    -1.11000
C186        C  0.61067262  0.14035496  0.64306541     1.07100
O187        O  0.57751727  0.20002375  0.81212644    -0.77700
O188        O  0.54534902  0.15979574  0.74179671    -0.65200
Ni189      Ni  0.62718679  0.07909637  0.89504376     1.34900
C190        C  0.53761634  0.13112120  0.74774698     0.85900
O191        O  0.61360328  0.15272414  0.94076810    -0.78200
O192        O  0.62842089  0.10441847  0.96483232    -0.88500
C193        C  0.60172454  0.21349368  0.84047025     0.85400
O194        O  0.67324942  0.09307820  0.87056126    -0.66700
O195        O  0.59985979  0.16626807  0.66230770    -0.86000
C196        C  0.68731899  0.12001173  0.86268873     0.86300
C197        C  0.62036528  0.13199922  0.97872106     1.07800
H198        H  0.64387062  0.15897413  0.76093393     0.39600
O199        O  0.61991681  0.15371548  0.77386398    -1.08600
O200        O  0.56089127  0.11070444  0.75518372    -0.65300
Ni201      Ni  0.61179621  0.11099827  0.76137683     1.26300
O202        O  0.66941522  0.14524882  0.86058507    -0.65500
O203        O  0.61711149  0.11656592  0.67625232    -0.77800
C204        C  0.61581002  0.04458390  0.78256630     0.85700
O205        O  0.60660012  0.06726569  0.75033527    -0.65000
Ni206      Ni  0.58924367  0.18256320  0.73794204     1.27400
Ni207      Ni  0.61791454  0.15299773  0.85719973     1.26100
H208        H  0.58010523  0.10772842  0.85607775     0.40200
O209        O  0.10272623  0.79140586  0.00869919    -0.79800
O210        O  0.10938106  0.93403303  0.97532630    -0.64400
O211        O  0.13673462  0.84946255  0.98654073    -1.11000
C212        C  0.13413417  0.86649184  0.19001748     1.07100
O213        O  0.14744330  0.95099662  0.04159687    -0.77700
O214        O  0.19127007  0.90639908  0.08758082    -0.65200
Ni215      Ni  0.11344504  0.81826581  0.94191889     1.34900
C216        C  0.20353550  0.87921841  0.08131382     0.85900
O217        O  0.12474520  0.89232354  0.89577646    -0.78200
O218        O  0.12223160  0.84198145  0.87088456    -0.88500
C219        C  0.12776044  0.95568488  0.99737539     0.85400
O220        O  0.06634331  0.83320661  0.94829407    -0.66700
O221        O  0.14211408  0.89472922  0.17627812    -0.86000
C222        C  0.05265353  0.85837675  0.96466126     0.86300
C223        C  0.12515941  0.87090857  0.85796690     1.07800
H224        H  0.09494618  0.89032049  0.07601011     0.39600
O225        O  0.11946123  0.88935960  0.06311585    -1.08600
O226        O  0.18377050  0.85506296  0.07584468    -0.65300
Ni227      Ni  0.13317152  0.84669833  0.06977105     1.26300
O228        O  0.07102667  0.88223545  0.97846100    -0.65500
O229        O  0.12839058  0.84542601  0.15279228    -0.77800
C230        C  0.12268035  0.78361124  0.05050155     0.85700
O231        O  0.14416824  0.80309223  0.07257331    -0.65000
Ni232      Ni  0.14445806  0.92046269  0.10599215     1.27400
Ni233      Ni  0.12172896  0.89144787  0.97952451     1.26100
H234        H  0.16149829  0.84917366  0.97495442     0.40200
O235        O  0.10471964  0.79161491  0.51211999    -0.79800
O236        O  0.10522851  0.93365793  0.46724620    -0.64400
O237        O  0.13592093  0.85066045  0.48753319    -1.11000
C238        C  0.12831294  0.86933450  0.68998111     1.07100
O239        O  0.13257236  0.95465810  0.54290963    -0.77700
O240        O  0.18006599  0.91439962  0.58541520    -0.65200
Ni241      Ni  0.11411192  0.81803453  0.44405801     1.34900
C242        C  0.19638655  0.88901668  0.58079450     0.85900
O243        O  0.12680028  0.89161209  0.39401298    -0.78200
O244        O  0.12232266  0.84097992  0.37173686    -0.88500
C245        C  0.11815005  0.95691289  0.49296678     0.85400
O246        O  0.06596335  0.83129185  0.44911347    -0.66700
O247        O  0.13375352  0.89786787  0.67593817    -0.86000
C248        C  0.05171568  0.85714561  0.45966885     0.86300
C249        C  0.12703951  0.86961247  0.35748348     1.07800
H250        H  0.08792759  0.88960032  0.57015006     0.39600
O251        O  0.11299761  0.89054746  0.56051094    -1.08600
O252        O  0.18072707  0.86227686  0.57873709    -0.65300
Ni253      Ni  0.13082112  0.84907231  0.57040305     1.26300
O254        O  0.06963673  0.88170471  0.46976422    -0.65500
O255        O  0.12418469  0.84803150  0.65291958    -0.77800
C256        C  0.12477537  0.78545597  0.55485713     0.85700
O257        O  0.14525855  0.80625609  0.57570689    -0.65000
Ni258      Ni  0.13253521  0.92362546  0.60578956     1.27400
Ni259      Ni  0.11952503  0.89190494  0.47687349     1.26100
H260        H  0.16091117  0.85075602  0.47723299     0.40200
O261        O  0.39304172  0.80520230  0.17345162    -0.79800
O262        O  0.39931231  0.94376066  0.20533197    -0.64400
O263        O  0.36223402  0.86147031  0.19240163    -1.11000
C264        C  0.37583442  0.87793731  0.98819691     1.07100
O265        O  0.36892325  0.96276800  0.13039770    -0.77700
O266        O  0.32178710  0.92253573  0.08262685    -0.65200
Ni267      Ni  0.37922363  0.82878072  0.24009829     1.34900
C268        C  0.30464994  0.89702272  0.09005588     0.85900
O269        O  0.37548958  0.90173594  0.28393420    -0.78200
O270        O  0.36706107  0.85113641  0.30909098    -0.88500
C271        C  0.38509508  0.96627752  0.17852944     0.85400
O272        O  0.42768366  0.84118152  0.24681814    -0.66700
O273        O  0.37218668  0.90667647  0.99968432    -0.86000
C274        C  0.44557399  0.86484954  0.22946858     0.86300
C275        C  0.36895287  0.87996010  0.32153237     1.07800
H276        H  0.41332389  0.89868309  0.10712809     0.39600
O277        O  0.38828407  0.89976627  0.11657992    -1.08600
O278        O  0.31961601  0.87083946  0.09796400    -0.65300
Ni279      Ni  0.36865599  0.85835832  0.10974527     1.26300
O280        O  0.43131364  0.88911746  0.20825793    -0.65500
O281        O  0.37647753  0.85656666  0.02720768    -0.77800
C282        C  0.37135537  0.79572267  0.13554733     0.85700
O283        O  0.35237909  0.81534549  0.10871757    -0.65000
Ni284      Ni  0.37071309  0.93242342  0.06833695     1.27400
Ni285      Ni  0.38227991  0.90183582  0.20026070     1.26100
H286        H  0.33714449  0.86280424  0.20119021     0.40200
O287        O  0.40861988  0.80536896  0.66853815    -0.79800
O288        O  0.38970590  0.94442387  0.69751529    -0.64400
O289        O  0.37000952  0.85784906  0.69374771    -1.11000
C290        C  0.36498127  0.87604989  0.48886544     1.07100
O291        O  0.34647253  0.95615114  0.63678400    -0.77700
O292        O  0.30734478  0.90841204  0.58856202    -0.52400
Ni293      Ni  0.39840680  0.82966249  0.73681785     1.34900
C294        C  0.29750869  0.88036820  0.59945106     0.85900
O295        O  0.38028925  0.90149375  0.78107577    -0.78200
O296        O  0.38924704  0.85172432  0.80818014    -0.88500
C297        C  0.36827594  0.96370587  0.67650645     0.85400
O298        O  0.44382927  0.85009554  0.72705661    -0.66700
O299        O  0.35738211  0.90395840  0.50167480    -0.86000
C300        C  0.45368126  0.87713124  0.70944926     0.86300
C301        C  0.38314659  0.88011224  0.81991729     1.07800
H302        H  0.40484260  0.90227526  0.59879445     0.39600
O303        O  0.38086163  0.89907644  0.61367717    -1.08600
O304        O  0.31922565  0.85867483  0.60952443    -0.65300
Ni305      Ni  0.37042722  0.85542689  0.61021812     1.26300
O306        O  0.43188224  0.89785803  0.69492311    -0.65500
O307        O  0.37142977  0.85486379  0.52662747    -0.77800
C308        C  0.38474416  0.79351744  0.63653897     0.85700
O309        O  0.36267556  0.81104986  0.61149989    -0.65000
Ni310      Ni  0.35257174  0.92791814  0.57168320     1.27400
Ni311      Ni  0.38089325  0.90101619  0.69717451     1.26100
H312        H  0.34591373  0.85475802  0.70817002     0.40200
O313        O  0.39170657  0.19603018  0.28174737    -0.79800
O314        O  0.39189898  0.05744491  0.25958843    -0.64400
O315        O  0.35709223  0.13965281  0.26629501    -1.11000
C316        C  0.35609649  0.12353756  0.47029226     1.07100
O317        O  0.35376494  0.03864376  0.32741646    -0.77700
O318        O  0.30539127  0.08142927  0.36411013    -0.65200
Ni319      Ni  0.37746306  0.17119528  0.21692767     1.34900
C320        C  0.29099232  0.10787890  0.36007848     0.85900
O321        O  0.37410332  0.09819799  0.17701902    -0.78200
O322        O  0.36503470  0.14785166  0.14927633    -0.88500
C323        C  0.37507236  0.03481966  0.28406857     0.85400
O324        O  0.42516241  0.15732291  0.21087411    -0.66700
O325        O  0.34838593  0.09548458  0.45714725    -0.86000
C326        C  0.44148170  0.13483854  0.23375114     0.86300
C327        C  0.36782073  0.11897495  0.13819065     1.07800
H328        H  0.40029932  0.10119671  0.35790236     0.39600
O329        O  0.37603157  0.10133327  0.34498010    -1.08600
O330        O  0.30891447  0.13356262  0.35820857    -0.65300
Ni331      Ni  0.35999759  0.14346086  0.34936185     1.26300
O332        O  0.42542675  0.11187688  0.25904108    -0.65500
O333        O  0.36370926  0.14483084  0.43247189    -0.77800
C334        C  0.37181163  0.20592592  0.32255762     0.85700
O335        O  0.34930946  0.18763632  0.34868836    -0.65000
Ni336      Ni  0.35138374  0.06951412  0.38896061     1.27400
Ni337      Ni  0.37564742  0.09905070  0.26128794     1.26100
H338        H  0.33233235  0.13816333  0.25619201     0.40200
O339        O  0.38888023  0.19378856  0.78237538    -0.79800
O340        O  0.38956341  0.05546488  0.75216709    -0.64400
O341        O  0.35477508  0.13691231  0.76834823    -1.11000
C342        C  0.36354146  0.11998363  0.97044646     1.07100
O343        O  0.35925990  0.03504846  0.82914548    -0.77700
O344        O  0.31051680  0.07604140  0.86714831    -0.65200
Ni345      Ni  0.37160908  0.16974773  0.71851546     1.34900
C346        C  0.29533044  0.10211934  0.86515420     0.85900
O347        O  0.36794279  0.09751632  0.67463424    -0.78200
O348        O  0.35644811  0.14739799  0.65147039    -0.88500
C349        C  0.37570843  0.03244866  0.78020450     0.85400
O350        O  0.41896773  0.15695219  0.70524705    -0.66700
O351        O  0.35454355  0.09208662  0.95829351    -0.86000
C352        C  0.43688608  0.13490694  0.72585673     0.86300
C353        C  0.35993378  0.11893619  0.63794356     1.07800
H354        H  0.40383943  0.09812604  0.85127224     0.39600
O355        O  0.37888757  0.09797376  0.84219882    -1.08600
O356        O  0.31234755  0.12821002  0.86528195    -0.65300
Ni357      Ni  0.36237208  0.13955150  0.85029731     1.26300
O358        O  0.42274755  0.11084685  0.75062110    -0.65500
O359        O  0.37093871  0.14069111  0.93178528    -0.77800
C360        C  0.37134366  0.20181352  0.82736473     0.85700
O361        O  0.35004356  0.18276328  0.85368295    -0.65000
Ni362      Ni  0.35723887  0.06593121  0.88994602     1.27400
Ni363      Ni  0.37354169  0.09686052  0.75860206     1.26100
H364        H  0.32955137  0.13516063  0.76187547     0.40200
O365        O  0.08159766  0.20177339  0.45211340    -0.79800
O366        O  0.09531060  0.06454281  0.48237784    -0.64400
O367        O  0.12003038  0.15010241  0.47528295    -1.11000
C368        C  0.11895799  0.13528821  0.26960569     1.07100
O369        O  0.13633711  0.05155942  0.41638324    -0.77700
O370        O  0.17754353  0.09816392  0.36369989    -0.65200
Ni371      Ni  0.09385281  0.17864283  0.52060715     1.34900
C372        C  0.18985874  0.12523553  0.37453775     0.85900
O373        O  0.10766142  0.10610879  0.56480001    -0.78200
O374        O  0.10471708  0.15627248  0.59121891    -0.88500
C375        C  0.11598775  0.04488276  0.46049858     0.85400
O376        O  0.04745559  0.16034874  0.51865877    -0.66700
O377        O  0.12556729  0.10689345  0.28206765    -0.86000
C378        C  0.03535819  0.13513754  0.49839009     0.86300
C379        C  0.10849843  0.12741205  0.60317326     1.07800
H380        H  0.08136858  0.10919563  0.38421892     0.39600
O381        O  0.10568035  0.11089007  0.39676700    -1.08600
O382        O  0.16994798  0.14825732  0.38585581    -0.65300
Ni383      Ni  0.11870376  0.15420247  0.39176579     1.26300
O384        O  0.05538626  0.11346984  0.48154527    -0.65500
O385        O  0.11582498  0.15639108  0.30794655    -0.77800
C386        C  0.10491312  0.21505956  0.41950249     0.85700
O387        O  0.12790365  0.19877851  0.39290311    -0.65000
Ni388      Ni  0.13078688  0.08133389  0.35167427     1.27400
Ni389      Ni  0.10628222  0.10761086  0.48046629     1.26100
H390        H  0.14442668  0.15182552  0.48738141     0.40200
O391        O  0.09523544  0.20788060  0.94354599    -0.79800
O392        O  0.10370407  0.06461456  0.98936999    -0.64400
O393        O  0.12642045  0.15100971  0.97294428    -1.11000
C394        C  0.12398673  0.13026648  0.76907322     1.07100
O395        O  0.14170815  0.04969523  0.92023100    -0.77700
O396        O  0.18192033  0.09403377  0.86125048    -0.65200
Ni397      Ni  0.09867944  0.18116825  0.01266662     1.34900
C398        C  0.19519409  0.12042629  0.87431856     0.85900
O399        O  0.11643397  0.10912936  0.06556380    -0.78200
O400        O  0.10169727  0.15827102  0.08628005    -0.88500
C401        C  0.12302888  0.04410037  0.96658590     0.85400
O402        O  0.05278034  0.16340697  0.99657125    -0.66700
O403        O  0.12765454  0.10163786  0.78284360    -0.86000
C404        C  0.04167839  0.13563401  0.98901670     0.86300
C405        C  0.11048522  0.13077730  0.10166957     1.07800
H406        H  0.08655708  0.10815163  0.88739240     0.39600
O407        O  0.11115435  0.10926534  0.89855660    -1.08600
O408        O  0.17640938  0.14375664  0.88693221    -0.65300
Ni409      Ni  0.12619018  0.15204626  0.88954517     1.26300
O410        O  0.06249948  0.11279787  0.98600575    -0.65500
O411        O  0.12426126  0.15215047  0.80595611    -0.77800
C412        C  0.12100035  0.21592064  0.90909942     0.85700
O413        O  0.14008047  0.19532574  0.88577354    -0.65000
Ni414      Ni  0.13440738  0.07795059  0.85412420     1.27400
Ni415      Ni  0.11354068  0.10814402  0.98224293     1.26100
H416        H  0.15053413  0.15366928  0.98596764     0.40200
O417        O  0.94653189  0.34847823  0.40535207    -0.79800
O418        O  0.79009405  0.37975818  0.36186862    -0.64400
O419        O  0.89054958  0.38488457  0.37072872    -1.11000
C420        C  0.86159966  0.39325840  0.57719557     1.07100
O421        O  0.78969166  0.42252164  0.41396941    -0.77700
O422        O  0.83794420  0.44656953  0.48463516    -0.65200
Ni423      Ni  0.91985279  0.35466677  0.33453233     1.34900
C424        C  0.86880550  0.45411026  0.46596684     0.85900
O425        O  0.84223057  0.37849015  0.27883747    -0.78200
O426        O  0.89632697  0.35942538  0.25988248    -0.88500
C427        C  0.77411581  0.40337134  0.38114692     0.85400
O428        O  0.89261833  0.31768070  0.35422612    -0.66700
O429        O  0.82974860  0.39815948  0.56110837    -0.86000
C430        C  0.86035290  0.31307096  0.36947852     0.86300
C431        C  0.86643205  0.36967558  0.24298327     1.07800
H432        H  0.83560948  0.36207722  0.46410524     0.39600
O433        O  0.84119604  0.38249164  0.44781014    -1.08600
O434        O  0.89075773  0.43398880  0.44773484    -0.65300
Ni435      Ni  0.89053269  0.38855063  0.45502816     1.26300
O436        O  0.83810717  0.33504091  0.37253024    -0.65500
O437        O  0.88789479  0.39081984  0.54072622    -0.77800
C438        C  0.95940193  0.36921782  0.43862727     0.85700
O439        O  0.94094766  0.39158834  0.45704974    -0.65000
Ni440      Ni  0.81004930  0.40951214  0.48658384     1.27400
Ni441      Ni  0.84063374  0.38027547  0.36383665     1.26100
H442        H  0.89741851  0.40477532  0.35335102     0.40200
O443        O  0.90279745  0.31681606  0.88200529    -0.79800
O444        O  0.87260542  0.43960409  0.99268049    -0.64400
O445        O  0.86169540  0.35773736  0.93765826    -1.11000
C446        C  0.85006258  0.40167914  0.74676973     1.07100
O447        O  0.84137260  0.46403040  0.92417370    -0.77700
O448        O  0.79801584  0.42002113  0.87820281    -0.65200
Ni449      Ni  0.89395000  0.32667010  0.96233064     1.34900
C450        C  0.78844551  0.39207799  0.86879978     0.85900
O451        O  0.86669101  0.38470057  0.04849990    -0.78200
O452        O  0.88665157  0.33566698  0.04425175    -0.88500
C453        C  0.85754440  0.46338194  0.97263899     0.85400
O454        O  0.93720680  0.35042144  0.96204099    -0.66700
O455        O  0.83666439  0.42395554  0.77510620    -0.86000
C456        C  0.94381093  0.37929970  0.96632094     0.86300
C457        C  0.87642993  0.35922707  0.07314456     1.07800
H458        H  0.89480655  0.41561837  0.87158457     0.39600
O459        O  0.87077107  0.40951531  0.88254500    -1.08600
O460        O  0.81055606  0.37094518  0.85584744    -0.65300
Ni461      Ni  0.86233982  0.36818761  0.85493792     1.26300
O462        O  0.91968393  0.39945036  0.96677012    -0.65500
O463        O  0.86517539  0.37919724  0.77237319    -0.77800
C464        C  0.87718526  0.30665422  0.85202217     0.85700
O465        O  0.85497052  0.32583127  0.83326250    -0.65000
Ni466      Ni  0.84040809  0.44107533  0.85281796     1.27400
Ni467      Ni  0.86835785  0.39831270  0.96611077     1.26100
H468        H  0.83810936  0.35058208  0.94927142     0.40200
O469        O  0.89394284  0.71545548  0.00482915    -0.79800
O470        O  0.87374141  0.57161772  0.97552742    -0.64400
O471        O  0.86089499  0.65733200  0.99941371    -1.11000
C472        C  0.87610638  0.63365687  0.19949651     1.07100
O473        O  0.85083232  0.55209906  0.05898645    -0.77700
O474        O  0.81210223  0.60010772  0.10010026    -0.65200
Ni475      Ni  0.88689553  0.68493051  0.94633621     1.34900
C476        C  0.80244160  0.62822109  0.10311318     0.85900
O477        O  0.85298564  0.61606962  0.90800481    -0.78200
O478        O  0.88349544  0.65834379  0.87894283    -0.88500
C479        C  0.86148721  0.54929890  0.00629116     0.85400
O480        O  0.93067934  0.66838954  0.96798905    -0.66700
O481        O  0.86031893  0.60850973  0.18614587    -0.86000
C482        C  0.93953973  0.64020189  0.96985394     0.86300
C483        C  0.86661214  0.63329502  0.86801222     1.07800
H484        H  0.90646480  0.60864394  0.07025001     0.39600
O485        O  0.88141868  0.61266449  0.06744989    -1.08600
O486        O  0.82427565  0.65132616  0.10246910    -0.65300
Ni487      Ni  0.87426942  0.65596100  0.08059874     1.26300
O488        O  0.91737447  0.61783104  0.96457417    -0.65500
O489        O  0.88761270  0.65335789  0.16124299    -0.77800
C490        C  0.88484380  0.72014903  0.05761201     0.85700
O491        O  0.86952219  0.69975822  0.09057758    -0.65000
Ni492      Ni  0.85666192  0.58315456  0.11815974     1.27400
Ni493      Ni  0.86756955  0.61419000  0.98703818     1.26100
H494        H  0.83595296  0.66174115  0.99618751     0.40200
O495        O  0.88572815  0.70643718  0.51619553    -0.79800
O496        O  0.88038624  0.56026085  0.48214207    -0.64400
O497        O  0.85675094  0.64656529  0.49530363    -1.11000
C498        C  0.87106752  0.62949991  0.70039951     1.07100
O499        O  0.85091483  0.54574654  0.56364761    -0.77700
O500        O  0.81389460  0.58603724  0.62526023    -0.65200
Ni501      Ni  0.88415289  0.67728530  0.45240366     1.34900
C502        C  0.79713997  0.60980897  0.60903017     0.85900
O503        O  0.86173368  0.60481135  0.40461809    -0.78200
O504        O  0.88429693  0.65248365  0.38266412    -0.88500
C505        C  0.86415459  0.53969380  0.51362418     0.85400
O506        O  0.92894112  0.66214422  0.47631607    -0.66700
O507        O  0.87163895  0.60042799  0.69057055    -0.86000
C508        C  0.94022729  0.63453356  0.47656040     0.86300
C509        C  0.87204353  0.62593747  0.36777931     1.07800
H510        H  0.90399386  0.60833730  0.57579598     0.39600
O511        O  0.87864300  0.60689461  0.57011887    -1.08600
O512        O  0.81205905  0.63473282  0.58866909    -0.65300
Ni513      Ni  0.86110232  0.64834286  0.57811357     1.26300
O514        O  0.91993623  0.61092687  0.47159517    -0.65500
O515        O  0.86695045  0.65008943  0.66084027    -0.77800
C516        C  0.86300069  0.71234893  0.55637142     0.85700
O517        O  0.84482364  0.69052103  0.58110470    -0.65000
Ni518      Ni  0.86227622  0.57496577  0.62377340     1.27400
Ni519      Ni  0.86995924  0.60404189  0.48721236     1.26100
H520        H  0.83222650  0.64858260  0.48480347     0.40200
O521        O  0.62301921  0.71430816  0.18664863    -0.79800
O522        O  0.60827614  0.57340074  0.24245584    -0.64400
O523        O  0.64700042  0.65455270  0.21271319    -1.11000
C524        C  0.63847326  0.63186252  0.01284691     1.07100
O525        O  0.63173110  0.54891162  0.16629994    -0.77700
O526        O  0.68466010  0.58761563  0.12232879    -0.65200
Ni527      Ni  0.62950709  0.68907159  0.25571425     1.34900
C528        C  0.70238667  0.61304716  0.12077265     0.85900
O529        O  0.63462174  0.61623723  0.31032827    -0.78200
O530        O  0.63396242  0.66733168  0.32939839    -0.88500
C531        C  0.61755215  0.54868686  0.21763480     0.85400
O532        O  0.58043267  0.67863023  0.25379396    -0.66700
O533        O  0.64290771  0.60369166  0.02922670    -0.86000
C534        C  0.56348386  0.65324645  0.24788349     0.86300
C535        C  0.63535172  0.63888185  0.34549372     1.07800
H536        H  0.59426843  0.61516841  0.13718361     0.39600
O537        O  0.61932320  0.61393849  0.14492666    -1.08600
O538        O  0.68837095  0.63983233  0.11864681    -0.65300
Ni539      Ni  0.64050488  0.65464525  0.13019325     1.26300
O540        O  0.57840390  0.62743934  0.23904917    -0.65500
O541        O  0.63309514  0.65375259  0.04829833    -0.77800
C542        C  0.64437282  0.71910119  0.14361467     0.85700
O543        O  0.65996435  0.69647302  0.11968660    -0.65000
Ni544      Ni  0.63690272  0.57927706  0.10149497     1.27400
Ni545      Ni  0.62674117  0.61432607  0.22812070     1.26100
H546        H  0.67206841  0.65353476  0.22053215     0.40200
O547        O  0.60489034  0.70887455  0.70611207    -0.79800
O548        O  0.60942595  0.56853742  0.72864071    -0.64400
O549        O  0.64009619  0.65306973  0.71430340    -1.11000
C550        C  0.62936936  0.64173666  0.51308274     1.07100
O551        O  0.63669288  0.55228753  0.64744864    -0.77700
O552        O  0.68460467  0.59906860  0.61646824    -0.65200
Ni553      Ni  0.62326420  0.68310741  0.76741569     1.34900
C554        C  0.69767463  0.62660568  0.61423514     0.85900
O555        O  0.63299199  0.60918643  0.80640098    -0.78200
O556        O  0.63969538  0.65918435  0.83258957    -0.88500
C557        C  0.62067456  0.54696966  0.69626439     0.85400
O558        O  0.57647914  0.66710156  0.78082426    -0.66700
O559        O  0.64172795  0.61515403  0.52564704    -0.86000
C560        C  0.56003907  0.64298926  0.76419761     0.86300
C561        C  0.63899522  0.63006043  0.84441130     1.07800
H562        H  0.59005258  0.61280352  0.63369888     0.39600
O563        O  0.61520394  0.61467376  0.64070672    -1.08600
O564        O  0.67858436  0.65070457  0.61320373    -0.65300
Ni565      Ni  0.62925903  0.65771247  0.63318069     1.26300
O566        O  0.57506713  0.62067555  0.73844159    -0.65500
O567        O  0.61831705  0.66031273  0.55184195    -0.77800
C568        C  0.62208223  0.71936991  0.66157922     0.85700
O569        O  0.64090780  0.70156033  0.63056862    -0.65000
Ni570      Ni  0.63882113  0.58620832  0.59082367     1.27400
Ni571      Ni  0.62407353  0.61113717  0.72333874     1.26100
H572        H  0.66556543  0.65316349  0.71836840     0.40200
O573        O  0.61162335  0.29221511  0.28831499    -0.79800
O574        O  0.59186656  0.43761424  0.24371636    -0.64400
O575        O  0.62360138  0.35573394  0.27781795    -1.11000
C576        C  0.60282370  0.38113967  0.47442787     1.07100
O577        O  0.61992309  0.46042304  0.31643004    -0.77700
O578        O  0.66339437  0.41704598  0.36316814    -0.65200
Ni579      Ni  0.60730292  0.32313336  0.22781224     1.34900
C580        C  0.67550155  0.38985595  0.36978694     0.85900
O581        O  0.62208491  0.39560867  0.18103728    -0.78200
O582        O  0.60204934  0.34877573  0.15801782    -0.88500
C583        C  0.60601415  0.46151877  0.26581534     0.85400
O584        O  0.55986813  0.32976055  0.25120350    -0.66700
O585        O  0.61557438  0.40736976  0.45623463    -0.86000
C586        C  0.54332304  0.35512372  0.24885936     0.86300
C587        C  0.61310526  0.37595169  0.14369279     1.07800
H588        H  0.56890474  0.39961897  0.34596944     0.39600
O589        O  0.59430963  0.39796662  0.34095660    -1.08600
O590        O  0.65592050  0.36600269  0.37930744    -0.65300
Ni591      Ni  0.60799698  0.35617280  0.35921331     1.26300
O592        O  0.55887396  0.38188084  0.24358718    -0.65500
O593        O  0.59358947  0.35952115  0.43983167    -0.77800
C594        C  0.61785413  0.29006231  0.34280133     0.85700
O595        O  0.62031146  0.31355039  0.37578913    -0.65000
Ni596      Ni  0.61701210  0.43105591  0.38292051     1.27400
Ni597      Ni  0.60719031  0.39649805  0.26019301     1.26100
H598        H  0.64919809  0.35617445  0.27486519     0.40200
O599        O  0.59731074  0.30682067  0.79596427    -0.79800
O600        O  0.59878938  0.45178616  0.76079892    -0.64400
O601        O  0.62541693  0.36666798  0.76973999    -1.11000
C602        C  0.61450328  0.37882952  0.97610461     1.07100
O603        O  0.62732272  0.46716082  0.84043627    -0.77700
O604        O  0.66914461  0.42586176  0.89452368    -0.65200
Ni605      Ni  0.59843428  0.33580346  0.73001692     1.34900
C606        C  0.68672062  0.40274789  0.87704750     0.85900
O607        O  0.61628415  0.40971721  0.67958561    -0.78200
O608        O  0.59817157  0.36096119  0.65914087    -0.88500
C609        C  0.61247402  0.47293219  0.79202221     0.85400
O610        O  0.55243394  0.34951630  0.75382361    -0.66700
O611        O  0.61325635  0.40801236  0.96655306    -0.86000
C612        C  0.54021873  0.37675444  0.75747594     0.86300
C613        C  0.60775309  0.38854158  0.64328034     1.07800
H614        H  0.57906054  0.40171224  0.85646543     0.39600
O615        O  0.60411432  0.40416583  0.84765297    -1.08600
O616        O  0.67236716  0.37773623  0.85824887    -0.65300
Ni617      Ni  0.62334288  0.36320155  0.85285797     1.26300
O618        O  0.56008711  0.40092789  0.75583623    -0.65500
O619        O  0.61910678  0.35918619  0.93605322    -0.77800
C620        C  0.62176945  0.30046141  0.83192470     0.85700
O621        O  0.64104472  0.32186040  0.85273962    -0.65000
Ni622      Ni  0.62006408  0.43541719  0.90005555     1.27400
Ni623      Ni  0.61049180  0.40865323  0.76377748     1.26100
H624        H  0.64976705  0.36566368  0.75618964     0.40200
O625        O  0.20479491  0.59087450  0.03657130    -0.79800
O626        O  0.05062500  0.62662016  0.00461301    -0.64400
O627        O  0.15089484  0.63152891  0.00925050    -1.11000
C628        C  0.13017244  0.63713366  0.21492940     1.07100
O629        O  0.04600069  0.66607689  0.06540456    -0.77700
O630        O  0.10120405  0.69214467  0.11754992    -0.65200
Ni631      Ni  0.17966550  0.60349741  0.96751267     1.34900
C632        C  0.13250491  0.69806083  0.09855696     0.85900
O633        O  0.10157538  0.62975523  0.92059537    -0.78200
O634        O  0.15705810  0.61534069  0.89548492    -0.88500
C635        C  0.03298498  0.64826657  0.02715394     0.85400
O636        O  0.15051204  0.56669952  0.97567614    -0.66700
O637        O  0.09886198  0.64577939  0.20303693    -0.86000
C638        C  0.11828763  0.56141511  0.99062327     0.86300
C639        C  0.12629808  0.62528905  0.88264808     1.07800
H640        H  0.09660390  0.60652442  0.10294512     0.39600
O641        O  0.10285044  0.62722072  0.08874839    -1.08600
O642        O  0.15502874  0.67693308  0.08878069    -0.65300
Ni643      Ni  0.15313607  0.63172763  0.09246291     1.26300
O644        O  0.09726973  0.58297758  0.00440963    -0.65500
O645        O  0.15391231  0.63170757  0.17621986    -0.77800
C646        C  0.21975728  0.60943062  0.07173016     0.85700
O647        O  0.20360503  0.63275961  0.09157711    -0.65000
Ni648      Ni  0.07396721  0.65497065  0.13206567     1.27400
Ni649      Ni  0.10093097  0.62795854  0.00491012     1.26100
H650        H  0.15757787  0.65198214  0.99421123     0.40200
O651        O  0.21081943  0.59611204  0.52783169    -0.79800
O652        O  0.05283649  0.62237310  0.50905465    -0.64400
O653        O  0.15304004  0.63395204  0.50862316    -1.11000
C654        C  0.13448456  0.63727237  0.71490545     1.07100
O655        O  0.04830427  0.66361727  0.56579044    -0.77700
O656        O  0.10293403  0.69255295  0.61511505    -0.65200
Ni657      Ni  0.18394674  0.61023346  0.46200197     1.34900
C658        C  0.13453692  0.69901326  0.59827029     0.85900
O659        O  0.10188542  0.62738348  0.42208424    -0.78200
O660        O  0.15907674  0.62284400  0.39317423    -0.88500
C661        C  0.03503411  0.64467444  0.52962092     0.85400
O662        O  0.15853528  0.57166889  0.46519467    -0.66700
O663        O  0.10353519  0.64692036  0.70283854    -0.86000
C664        C  0.12883007  0.56217752  0.48632332     0.86300
C665        C  0.12637360  0.62744034  0.38259471     1.07800
H666        H  0.10127336  0.60619769  0.60514389     0.39600
O667        O  0.10670968  0.62684839  0.58985677    -1.08600
O668        O  0.15767884  0.67817964  0.59054818    -0.65300
Ni669      Ni  0.15680322  0.63290544  0.59192810     1.26300
O670        O  0.10579126  0.58080373  0.50702348    -0.65500
O671        O  0.15817921  0.63149706  0.67607171    -0.77800
C672        C  0.22421742  0.61285751  0.56740171     0.85700
O673        O  0.20737066  0.63520722  0.58962314    -0.65000
Ni674      Ni  0.07742554  0.65456556  0.63228074     1.27400
Ni675      Ni  0.10337889  0.62638839  0.50638128     1.26100
H676        H  0.15693496  0.65515022  0.49502323     0.40200
O677        O  0.16494572  0.46389586  0.41444575    -0.79800
O678        O  0.14570027  0.32268526  0.38870009    -0.64400
O679        O  0.12565535  0.40935181  0.39435960    -1.11000
C680        C  0.12044797  0.39222333  0.59946676     1.07100
O681        O  0.10443309  0.30988317  0.45522919    -0.77700
O682        O  0.06474815  0.35648268  0.49451229    -0.65200
Ni683      Ni  0.15366970  0.43830171  0.34834737     1.34900
C684        C  0.05508909  0.38410889  0.48422849     0.85900
O685        O  0.13352646  0.36560503  0.30603745    -0.78200
O686        O  0.14350080  0.41558612  0.27843521    -0.88500
C687        C  0.12659644  0.30237054  0.41536186     0.85400
O688        O  0.19894117  0.41914782  0.35561882    -0.66700
O689        O  0.11028713  0.36478839  0.58649504    -0.86000
C690        C  0.20819764  0.39212894  0.37177442     0.86300
C691        C  0.13619321  0.38721378  0.26717264     1.07800
H692        H  0.16165260  0.36574604  0.48620075     0.39600
O693        O  0.13757197  0.36853668  0.47355004    -1.08600
O694        O  0.07642935  0.40739615  0.48201590    -0.65300
Ni695      Ni  0.12752578  0.41219531  0.47776412     1.26300
O696        O  0.18627043  0.37069673  0.38614744    -0.65500
O697        O  0.12969435  0.41299729  0.56145406    -0.77800
C698        C  0.14277647  0.47475971  0.45114096     0.85700
O699        O  0.12016112  0.45674018  0.47714238    -0.65000
Ni700      Ni  0.10849290  0.33948962  0.51778445     1.27400
Ni701      Ni  0.13588872  0.36613756  0.38984644     1.26100
H702        H  0.10142304  0.41186312  0.38223653     0.40200
O703        O  0.13664552  0.46821715  0.91327466    -0.79800
O704        O  0.13176475  0.32226653  0.89111550    -0.64400
O705        O  0.10669952  0.40899015  0.89600053    -1.11000
C706        C  0.11887769  0.39054516  0.10186813     1.07100
O707        O  0.08946704  0.31493504  0.95835306    -0.77700
O708        O  0.05849925  0.35389118  0.03039829    -0.65200
Ni709      Ni  0.12900722  0.44061072  0.84900018     1.34900
C710        C  0.04250684  0.37609577  0.00603916     0.85900
O711        O  0.11747575  0.36562384  0.80660727    -0.78200
O712        O  0.12339142  0.41618370  0.78002718    -0.88500
C713        C  0.10961799  0.30421024  0.91887036     0.85400
O714        O  0.17608738  0.42715953  0.85886894    -0.66700
O715        O  0.11989818  0.36167183  0.08997357    -0.86000
C716        C  0.19036176  0.40162866  0.87194751     0.86300
C717        C  0.11912431  0.38749899  0.76800070     1.07800
H718        H  0.15034958  0.37114984  0.98283124     0.39600
O719        O  0.12545094  0.37032894  0.97343987    -1.08600
O720        O  0.05866766  0.39977803  0.98315404    -0.65300
Ni721      Ni  0.10887523  0.41158278  0.97966246     1.26300
O722        O  0.17266565  0.37635252  0.88260730    -0.65500
O723        O  0.11205012  0.41188803  0.06417098    -0.77800
C724        C  0.11795431  0.47467681  0.95817148     0.85700
O725        O  0.09624408  0.45487253  0.98163683    -0.65000
Ni726      Ni  0.10543924  0.33895135  0.02296833     1.27400
Ni727      Ni  0.12173241  0.36671043  0.89044179     1.26100
H728        H  0.08206303  0.40908522  0.88493805     0.40200
O729        O  0.38791684  0.46184579  0.36342223    -0.79800
O730        O  0.34823862  0.31462058  0.37801820    -0.64400
O731        O  0.38958148  0.39720195  0.36323520    -1.11000
C732        C  0.36646292  0.37903507  0.16294753     1.07100
O733        O  0.38991476  0.30151007  0.31516884    -0.77700
O734        O  0.43093353  0.34341996  0.25600655    -0.65200
Ni735      Ni  0.37475694  0.42848807  0.41685374     1.34900
C736        C  0.44350642  0.37100453  0.25540218     0.85900
O737        O  0.37732860  0.35337717  0.45535818    -0.78200
O738        O  0.36119057  0.40059922  0.48069919    -0.88500
C739        C  0.36487680  0.29356706  0.35087771     0.85400
O740        O  0.32874889  0.42561905  0.38562762    -0.66700
O741        O  0.37735647  0.35186065  0.17616876    -0.86000
C742        C  0.30919114  0.40134513  0.38171714     0.86300
C743        C  0.36917532  0.37288363  0.49383456     1.07800
H744        H  0.33581482  0.35722882  0.28476356     0.39600
O745        O  0.36095391  0.35889931  0.29225927    -1.08600
O746        O  0.42411622  0.39465272  0.25851687    -0.65300
Ni747      Ni  0.37543763  0.40086541  0.28145339     1.26300
O748        O  0.32084861  0.37342612  0.38615668    -0.65500
O749        O  0.36205462  0.40055498  0.20044878    -0.77800
C750        C  0.39040801  0.46594601  0.30832060     0.85700
O751        O  0.38672232  0.44414163  0.27191698    -0.65000
Ni752      Ni  0.38353732  0.32802881  0.24739381     1.27400
Ni753      Ni  0.36832729  0.35636707  0.37371227     1.26100
H754        H  0.41508397  0.39546702  0.36590119     0.40200
O755        O  0.35158011  0.45422615  0.84570799    -0.79800
O756        O  0.34357803  0.30762098  0.88013146    -0.64400
O757        O  0.37550779  0.39290493  0.86735974    -1.11000
C758        C  0.36781396  0.37346608  0.66210630     1.07100
O759        O  0.38364464  0.29521575  0.81385008    -0.77700
O760        O  0.42287726  0.33398804  0.74745416    -0.65200
Ni761      Ni  0.35064542  0.42407165  0.90981142     1.34900
C762        C  0.43926276  0.35845840  0.76244211     0.85900
O763        O  0.36371282  0.34993153  0.95927965    -0.78200
O764        O  0.34935272  0.39894340  0.98068122    -0.88500
C765        C  0.36066729  0.28714636  0.85281662     0.85400
O766        O  0.30368697  0.41057894  0.88901360    -0.66700
O767        O  0.36722275  0.34449861  0.67536657    -0.86000
C768        C  0.29019225  0.38332440  0.88519057     0.86300
C769        C  0.35761436  0.37137674  0.99581342     1.07800
H770        H  0.33024961  0.35399707  0.78267514     0.39600
O771        O  0.35505640  0.35331176  0.79245555    -1.08600
O772        O  0.42356492  0.38305345  0.77868988    -0.65300
Ni773      Ni  0.37375953  0.39467019  0.78342839     1.26300
O774        O  0.30886888  0.35909271  0.88440862    -0.65500
O775        O  0.37084855  0.39501312  0.69955651    -0.77800
C776        C  0.37345594  0.45929697  0.80320735     0.85700
O777        O  0.38970991  0.43730702  0.77823525    -0.65000
Ni778      Ni  0.37453856  0.32105363  0.74645290     1.27400
Ni779      Ni  0.35878944  0.35058369  0.87596950     1.26100
H780        H  0.39996694  0.39386428  0.87932403     0.40200
O781        O  0.36477965  0.54591872  0.16983087    -0.79800
O782        O  0.37501910  0.69160469  0.13304668    -0.64400
O783        O  0.39723325  0.60493766  0.14697788    -1.11000
C784        C  0.39006940  0.62601888  0.35107594     1.07100
O785        O  0.41714502  0.70177867  0.19599299    -0.77700
O786        O  0.45154284  0.66033386  0.25971252    -0.65200
Ni787      Ni  0.37167118  0.57419048  0.10429377     1.34900
C788        C  0.46353037  0.63397618  0.24651033     0.85900
O789        O  0.39011547  0.64782095  0.05436516    -0.78200
O790        O  0.37633842  0.59821701  0.03324144    -0.88500
C791        C  0.39557102  0.71090226  0.15760514     0.85400
O792        O  0.32567160  0.59002289  0.11844707    -0.66700
O793        O  0.39546788  0.65458645  0.33696736    -0.86000
C794        C  0.31459933  0.61749653  0.12438902     0.86300
C795        C  0.38396462  0.62619459  0.01821768     1.07800
H796        H  0.35591419  0.64765971  0.23228809     0.39600
O797        O  0.38069727  0.64612053  0.22130806    -1.08600
O798        O  0.44373437  0.61078102  0.23464075    -0.65300
Ni799      Ni  0.39313136  0.60362304  0.23066640     1.26300
O800        O  0.33487675  0.64097518  0.13169331    -0.65500
O801        O  0.38851367  0.60406710  0.31428110    -0.77800
C802        C  0.38480290  0.53957015  0.21231883     0.85700
O803        O  0.40351662  0.56034698  0.23664012    -0.65000
Ni804      Ni  0.40529417  0.67694498  0.26470891     1.27400
Ni805      Ni  0.38522656  0.64787104  0.13784166     1.26100
H806        H  0.42188608  0.60309927  0.13543277     0.40200
O807        O  0.36813801  0.54003566  0.65644677    -0.79800
O808        O  0.38329827  0.68938213  0.63587633    -0.64400
O809        O  0.39864342  0.60085888  0.64714028    -1.11000
C810        C  0.38308645  0.62081029  0.85135872     1.07100
O811        O  0.42342890  0.69493494  0.70311769    -0.77700
O812        O  0.44980150  0.65119532  0.77067085    -0.65200
Ni813      Ni  0.37242239  0.57329025  0.59837795     1.34900
C814        C  0.46072249  0.62464302  0.75646398     0.85900
O815        O  0.40071558  0.64638537  0.55725839    -0.78200
O816        O  0.37522300  0.60137522  0.53164334    -0.88500
C817        C  0.40361438  0.70686929  0.66518922     0.85400
O818        O  0.32780951  0.58934076  0.62212891    -0.66700
O819        O  0.38985606  0.64916623  0.83791043    -0.86000
C820        C  0.31846484  0.61761626  0.62248001     0.86300
C821        C  0.38958213  0.62773026  0.51892074     1.07800
H822        H  0.35592828  0.64494024  0.72861529     0.39600
O823        O  0.38098098  0.64198832  0.72126602    -1.08600
O824        O  0.44023662  0.60271168  0.74057628    -0.65300
Ni825      Ni  0.38968243  0.59868299  0.73063181     1.26300
O826        O  0.34032504  0.64047120  0.62462038    -0.65500
O827        O  0.38162990  0.59888789  0.81424334    -0.77800
C828        C  0.38174848  0.53378877  0.70582723     0.85700
O829        O  0.39598966  0.55457668  0.73728590    -0.65000
Ni830      Ni  0.40542739  0.67099419  0.76882945     1.27400
Ni831      Ni  0.39043325  0.64487111  0.63917332     1.26100
H832        H  0.42348886  0.59747984  0.63873264     0.40200
C833        C  0.37801295  0.61302630  0.91392927    -0.15300
C834        C  0.38578615  0.63398068  0.95540844    -0.30500
H835        H  0.36986924  0.58939492  0.92609714     0.13700
H836        H  0.39432464  0.65749345  0.94306957     0.14300
C837        C  0.38549399  0.61744316  0.41345869    -0.15300
C838        C  0.39312298  0.63722650  0.45673353    -0.30500
H839        H  0.37680580  0.59373903  0.42398566     0.13700
H840        H  0.40294633  0.66062409  0.44636799     0.14300
C841        C  0.37905206  0.49211097  0.78304679    -0.15300
C842        C  0.38043939  0.50066173  0.72604819    -0.30500
H843        H  0.37838686  0.51002605  0.81607561     0.13700
H844        H  0.37754046  0.48286724  0.69308135     0.14300
C845        C  0.36853440  0.36271348  0.55591945    -0.15300
C846        C  0.36536434  0.38299521  0.59992770    -0.30500
H847        H  0.37245540  0.33821790  0.56560811     0.13700
H848        H  0.36272688  0.40763592  0.59007503     0.14300
C849        C  0.35912212  0.38596449  0.10063467    -0.15300
C850        C  0.36121141  0.36405830  0.05894462    -0.30500
H851        H  0.35271427  0.40971793  0.08864873     0.13700
H852        H  0.36758640  0.34030601  0.07104423     0.14300
C853        C  0.38437474  0.50703282  0.23373072    -0.15300
C854        C  0.39654903  0.49810484  0.28615499    -0.30500
H855        H  0.37109866  0.48998669  0.20660022     0.13700
H856        H  0.40761197  0.51528518  0.31546227     0.14300
C857        C  0.22960284  0.40333908  0.87526614    -0.15300
C858        C  0.25098194  0.37902403  0.88191529    -0.30500
H859        H  0.24158803  0.42649555  0.87141355     0.13700
H860        H  0.23966610  0.35561112  0.88435928     0.14300
C861        C  0.12174940  0.40040954  0.66197307    -0.15300
C862        C  0.11621310  0.37921568  0.70565269    -0.30500
H863        H  0.12841583  0.42437761  0.67221622     0.13700
H864        H  0.11034507  0.35509086  0.69548319     0.14300
C865        C  0.13020076  0.37856714  0.20586301    -0.15300
C866        C  0.12594233  0.39980375  0.16263204    -0.30500
H867        H  0.12809938  0.35391310  0.19651433     0.13700
H868        H  0.12699223  0.42446327  0.17219057     0.14300
C869        C  0.24616089  0.38472490  0.37529063    -0.15300
C870        C  0.27127568  0.40707243  0.37301878    -0.30500
H871        H  0.25339690  0.36069998  0.38316365     0.13700
H872        H  0.26362568  0.43113976  0.36697715     0.14300
C873        C  0.25954756  0.60473901  0.58768155    -0.15300
C874        C  0.28072461  0.62462019  0.61587585    -0.30500
H875        H  0.26981549  0.58259166  0.57341806     0.13700
H876        H  0.27158797  0.64770914  0.62646277     0.14300
C877        C  0.12143110  0.52772330  0.48500380    -0.15300
C878        C  0.14667678  0.50843574  0.46420349    -0.30500
H879        H  0.09535840  0.51854641  0.49791014     0.13700
H880        H  0.17221408  0.51849764  0.45044430     0.14300
C881        C  0.11845894  0.63227583  0.82053068    -0.15300
C882        C  0.14326587  0.63169843  0.77718933    -0.30500
H883        H  0.09132883  0.63818212  0.81029441     0.13700
H884        H  0.17040492  0.62574325  0.78725942     0.14300
C885        C  0.13995733  0.63279326  0.27672112    -0.15300
C886        C  0.11607833  0.63312220  0.32127041    -0.30500
H887        H  0.16763957  0.62821403  0.28551052     0.13700
H888        H  0.08827096  0.63715970  0.31254390     0.14300
C889        C  0.25607149  0.60272802  0.08934596    -0.15300
C890        C  0.27637722  0.62285318  0.11886129    -0.30500
H891        H  0.26741346  0.58141908  0.07299658     0.13700
H892        H  0.26583884  0.64498448  0.13254228     0.14300
C893        C  0.10422801  0.52876944  0.98846322    -0.15300
C894        C  0.12660140  0.50481834  0.98526548    -0.30500
H895        H  0.07597184  0.52480698  0.98251160     0.13700
H896        H  0.15483012  0.50968474  0.98967320     0.14300
C897        C  0.50121461  0.38088625  0.76342693    -0.15300
C898        C  0.47847001  0.35657145  0.76042154    -0.30500
H899        H  0.49109798  0.40417907  0.76860260     0.13700
H900        H  0.48909079  0.33355826  0.75359520     0.14300
C901        C  0.50439821  0.35208757  0.25129674    -0.15300
C902        C  0.48236294  0.37614274  0.25133601    -0.30500
H903        H  0.49343706  0.32852992  0.25387562     0.13700
H904        H  0.49293275  0.39982588  0.24946876     0.14300
C905        C  0.59966885  0.37501465  0.53859185    -0.15300
C906        C  0.60916564  0.39602853  0.57937386    -0.30500
H907        H  0.58994333  0.35209261  0.55258006     0.13700
H908        H  0.61874782  0.41902451  0.56560770     0.14300
C909        C  0.61481958  0.38625747  0.08208209    -0.15300
C910        C  0.61090972  0.36703597  0.03694078    -0.30500
H911        H  0.62056290  0.41081096  0.07371003     0.13700
H912        H  0.60664715  0.34224611  0.04472812     0.14300
C913        C  0.52146033  0.64240789  0.77428018    -0.15300
C914        C  0.49940805  0.61980124  0.75592752    -0.30500
H915        H  0.51055983  0.66296690  0.79443745     0.13700
H916        H  0.50985063  0.59896062  0.73623359     0.14300
C917        C  0.61588798  0.51411686  0.71538378    -0.15300
C918        C  0.61232554  0.50576131  0.77211158    -0.30500
H919        H  0.61833005  0.49623921  0.68248753     0.13700
H920        H  0.61301221  0.52355312  0.80540660     0.14300
C921        C  0.52453009  0.65474277  0.25179219    -0.15300
C922        C  0.50246203  0.63025013  0.24421982    -0.30500
H923        H  0.51360310  0.67745315  0.26046739     0.13700
H924        H  0.51304272  0.60750700  0.23484529     0.14300
C925        C  0.63944291  0.64042027  0.94991988    -0.15300
C926        C  0.64355335  0.62006011  0.90618839    -0.30500
H927        H  0.63501117  0.66474505  0.93928223     0.13700
H928        H  0.64693849  0.59552500  0.91610336     0.14300
C929        C  0.63740843  0.63119363  0.40827959    -0.15300
C930        C  0.62872836  0.65127073  0.45070810    -0.30500
H931        H  0.64437394  0.60749281  0.41977010     0.13700
H932        H  0.62036151  0.67461346  0.43945229     0.14300
C933        C  0.61332093  0.51914778  0.25266574    -0.15300
C934        C  0.60810171  0.49081876  0.22952098    -0.30500
H935        H  0.61376797  0.52105328  0.30009519     0.13700
H936        H  0.60519404  0.48896131  0.18239847     0.14300
C937        C  0.97828010  0.62912631  0.48498396    -0.15300
C938        C  0.99867972  0.65051213  0.51078567    -0.30500
H939        H  0.98871468  0.60632651  0.47557994     0.13700
H940        H  0.98730989  0.67253545  0.52331524     0.14300
C941        C  0.75827936  0.60698736  0.61401817    -0.15300
C942        C  0.73655533  0.63118127  0.61081728    -0.30500
H943        H  0.74717809  0.58373830  0.62179916     0.13700
H944        H  0.74741745  0.65462133  0.60480516     0.14300
C945        C  0.97682982  0.63332162  0.98070438    -0.15300
C946        C  0.99712771  0.65447165  0.00765306    -0.30500
H947        H  0.98663166  0.61022667  0.97198105     0.13700
H948        H  0.98612845  0.67667148  0.02001754     0.14300
C949        C  0.87493097  0.64031217  0.76089744    -0.15300
C950        C  0.86372805  0.62280937  0.80706041    -0.30500
H951        H  0.88503130  0.66381447  0.76737423     0.13700
H952        H  0.85184603  0.59998220  0.79993647     0.14300
C953        C  0.88027827  0.64023328  0.26241602    -0.15300
C954        C  0.86973089  0.61942599  0.30462058    -0.30500
H955        H  0.89173045  0.66259475  0.27419493     0.13700
H956        H  0.85854397  0.59700032  0.29260862     0.14300
C957        C  0.76404941  0.63406198  0.10830214    -0.15300
C958        C  0.74113948  0.61031673  0.11987297    -0.30500
H959        H  0.75460355  0.65758242  0.10229324     0.13700
H960        H  0.75113245  0.58699051  0.12628406     0.14300
C961        C  0.98135091  0.38966207  0.97249555    -0.15300
C962        C  0.00351972  0.37183234  0.00324713    -0.30500
H963        H  0.99055956  0.41152882  0.95262269     0.13700
H964        H  0.99269587  0.35079090  0.02446316     0.14300
C965        C  0.74973892  0.38430483  0.87048371    -0.15300
C966        C  0.72578206  0.40680195  0.87855663    -0.30500
H967        H  0.74090862  0.36059710  0.86245788     0.13700
H968        H  0.73524529  0.43030091  0.88707402     0.14300
C969        C  0.85929202  0.49210789  0.00619182    -0.15300
C970        C  0.85852154  0.51941610  0.97747292    -0.30500
H971        H  0.86343900  0.49104443  0.05320013     0.13700
H972        H  0.85746584  0.52000972  0.92983385     0.14300
C973        C  0.99593175  0.36534885  0.45807720    -0.15300
C974        C  0.01723459  0.38925036  0.47280466    -0.30500
H975        H  0.00660454  0.34212343  0.45500175     0.13700
H976        H  0.00746363  0.41285607  0.47196573     0.14300
C977        C  0.86815546  0.39031915  0.64170476    -0.15300
C978        C  0.84553976  0.40233558  0.68183467    -0.30500
H979        H  0.89227971  0.37938287  0.65619627     0.13700
H980        H  0.82302045  0.41528308  0.66612818     0.14300
C981        C  0.87882885  0.35630053  0.13847068    -0.15300
C982        C  0.85993056  0.37241020  0.17831117    -0.30500
H983        H  0.89753294  0.33939516  0.15460668     0.13700
H984        H  0.83946655  0.38793547  0.16333818     0.14300
C985        C  0.73700822  0.40877988  0.36828549    -0.15300
C986        C  0.71381426  0.38502840  0.36814198    -0.30500
H987        H  0.72781390  0.43257169  0.36859046     0.13700
H988        H  0.72313943  0.36131973  0.37207001     0.14300
C989        C  0.87925139  0.48784439  0.46889154    -0.15300
C990        C  0.85598898  0.50815698  0.49194567    -0.30500
H991        H  0.90632770  0.49527109  0.45816587     0.13700
H992        H  0.82959345  0.49967638  0.50480895     0.14300
C993        C  0.12885250  0.24967740  0.89716944    -0.15300
C994        C  0.10355895  0.27077912  0.90634894    -0.30500
H995        H  0.15599307  0.25723096  0.88724166     0.13700
H996        H  0.07688373  0.26207497  0.91696031     0.14300
C997        C  0.10300698  0.24921575  0.41560281    -0.15300
C998        C  0.12950980  0.26905742  0.39994490    -0.30500
H999        H  0.07885525  0.25871283  0.43433957     0.13700
H1000       H  0.15397021  0.26065904  0.38051205     0.14300
C1001       C  0.11442650  0.11797380  0.66469066    -0.15300
C1002       C  0.11864822  0.13902138  0.70715274    -0.30500
H1003       H  0.11560088  0.09328320  0.67511818     0.13700
H1004       H  0.11739582  0.16368725  0.69652058     0.14300
C1005       C  0.11426276  0.14422308  0.20723688    -0.15300
C1006       C  0.11446070  0.12296676  0.16450252    -0.30500
H1007       H  0.11022888  0.16857068  0.19639233     0.13700
H1008       H  0.11875599  0.09869073  0.17565295     0.14300
C1009       C  0.37888208  0.23341686  0.84788511    -0.15300
C1010       C  0.35394560  0.25350843  0.86432807    -0.30500
H1011       H  0.40509067  0.24264152  0.83546347     0.13700
H1012       H  0.32734859  0.24536726  0.87664897     0.14300
C1013       C  0.25607523  0.10068937  0.86274682    -0.15300
C1014       C  0.23452431  0.12443149  0.87478759    -0.30500
H1015       H  0.24432959  0.07811375  0.85308845     0.13700
H1016       H  0.24584379  0.14694129  0.88594428     0.14300
C1017       C  0.37900547  0.23868593  0.33885453    -0.15300
C1018       C  0.35570983  0.25969829  0.35865068    -0.30500
H1019       H  0.40508604  0.24730204  0.32431849     0.13700
H1020       H  0.32928283  0.25246169  0.37366651     0.14300
C1021       C  0.35650402  0.13190281  0.53266348    -0.15300
C1022       C  0.35552074  0.11033625  0.57617801    -0.30500
H1023       H  0.35968557  0.15637678  0.54288491     0.13700
H1024       H  0.35408078  0.08576373  0.56595461     0.14300
C1025       C  0.36523611  0.12937489  0.03210070    -0.15300
C1026       C  0.36405407  0.10885884  0.07713305    -0.30500
H1027       H  0.36893003  0.15402026  0.04047063     0.13700
H1028       H  0.36194372  0.08408699  0.06889074     0.14300
C1029       C  0.22943558  0.13008144  0.37357685    -0.15300
C1030       C  0.25145466  0.10708911  0.35753289    -0.30500
H1031       H  0.24047517  0.15233730  0.38681759     0.13700
H1032       H  0.23975016  0.08482141  0.34572649     0.14300
C1033       C  0.38286239  0.75915117  0.62949935    -0.15300
C1034       C  0.40601113  0.74105697  0.65777362    -0.30500
H1035       H  0.36122532  0.74875062  0.60531435     0.13700
H1036       H  0.42699542  0.75219313  0.68245763     0.14300
C1037       C  0.36789152  0.99545773  0.70013180    -0.15300
C1038       C  0.37798986  0.00122157  0.75524120    -0.30500
H1039       H  0.35762381  0.01413073  0.67304955     0.13700
H1040       H  0.38486538  0.98209752  0.78433453     0.14300
C1041       C  0.36951875  0.76170876  0.12475017    -0.15300
C1042       C  0.39694637  0.74435831  0.14249243    -0.30500
H1043       H  0.34499716  0.75092377  0.11020053     0.13700
H1044       H  0.42101714  0.75626401  0.15640090     0.14300
C1045       C  0.37908519  0.88924344  0.88169238    -0.15300
C1046       C  0.37963092  0.86857856  0.92646937    -0.30500
H1047       H  0.37538737  0.91374253  0.89043093     0.13700
H1048       H  0.38305578  0.84404482  0.91775484     0.14300
C1049       C  0.36422658  0.88869653  0.38312919    -0.15300
C1050       C  0.36657192  0.86753238  0.42681361    -0.30500
H1051       H  0.36106518  0.91314970  0.39283695     0.13700
H1052       H  0.37110798  0.84328677  0.41688142     0.14300
C1053       C  0.38623880  0.99784675  0.20369524    -0.15300
C1054       C  0.37913204  0.00297453  0.26081925    -0.30500
H1055       H  0.38870507  0.01753726  0.17336030     0.13700
H1056       H  0.37300813  0.98332095  0.29003675     0.14300
C1057       C  0.11963510  0.75453315  0.58373910    -0.15300
C1058       C  0.14437886  0.73222615  0.58444189    -0.30500
H1059       H  0.09233589  0.74817848  0.59535023     0.13700
H1060       H  0.17120006  0.73780583  0.56886647     0.14300
C1061       C  0.11737197  0.98743192  0.46202474    -0.15300
C1062       C  0.11787875  0.01436718  0.49076480    -0.30500
H1063       H  0.11499039  0.98774149  0.41459825     0.13700
H1064       H  0.11692256  0.01401340  0.53841575     0.14300
C1065       C  0.23549712  0.89260285  0.57738843    -0.15300
C1066       C  0.25882961  0.87240881  0.59935983    -0.30500
H1067       H  0.24540307  0.91499684  0.56068468     0.13700
H1068       H  0.24954668  0.85005867  0.61708307     0.14300
C1069       C  0.11676060  0.75220078  0.07640436    -0.15300
C1070       C  0.14234784  0.73114441  0.08479353    -0.30500
H1071       H  0.08912459  0.74466369  0.08061343     0.13700
H1072       H  0.16993953  0.73749842  0.07548319     0.14300
C1073       C  0.12654778  0.85996677  0.75232243    -0.15300
C1074       C  0.12888276  0.88051350  0.79583435    -0.30500
H1075       H  0.12241176  0.83538823  0.76257779     0.13700
H1076       H  0.13258184  0.90514319  0.78568478     0.14300
C1077       C  0.13088076  0.85739230  0.25238186    -0.15300
C1078       C  0.13283078  0.87827901  0.29533326    -0.30500
H1079       H  0.12541170  0.83303437  0.26303122     0.13700
H1080       H  0.13773184  0.90270955  0.28459809     0.14300
C1081       C  0.12498211  0.01339248  0.99702406    -0.15300
C1082       C  0.12763939  0.98664494  0.96768765    -0.30500
H1083       H  0.12187696  0.01257200  0.04448230     0.13700
H1084       H  0.12703237  0.98728010  0.92007049     0.14300
C1085       C  0.24272893  0.87510409  0.08159714    -0.15300
C1086       C  0.26538677  0.89922290  0.08941539    -0.30500
H1087       H  0.25304318  0.85189648  0.07616976     0.13700
H1088       H  0.25475875  0.92241670  0.09347917     0.14300
C1089       C  0.49975838  0.12111691  0.74658252    -0.15300
C1090       C  0.47576108  0.13954945  0.72165964    -0.30500
H1091       H  0.49155996  0.09911669  0.76712028     0.13700
H1092       H  0.48500180  0.16096483  0.69990587     0.14300
C1093       C  0.59908845  0.24745252  0.84543314    -0.15300
C1094       C  0.62655482  0.26753592  0.85003178    -0.30500
H1095       H  0.57326448  0.25665574  0.83469009     0.13700
H1096       H  0.65274890  0.25945782  0.86119842     0.14300
C1097       C  0.50353609  0.11704914  0.25493638    -0.15300
C1098       C  0.48081408  0.13717512  0.23053188    -0.30500
H1099       H  0.49346258  0.09605203  0.27702932     0.13700
H1100       H  0.49160775  0.15786908  0.20819236     0.14300
C1101       C  0.59751268  0.23658831  0.34897571    -0.15300
C1102       C  0.62126082  0.25797451  0.36687048    -0.30500
H1103       H  0.57456595  0.24501311  0.32555633     0.13700
H1104       H  0.64448537  0.25147877  0.39136552     0.14300
C1105       C  0.61512651  0.13936895  0.57824946    -0.15300
C1106       C  0.62696549  0.11480499  0.54914450    -0.30500
H1107       H  0.60789894  0.15998408  0.55335812     0.13700
H1108       H  0.63428576  0.09415391  0.57384696     0.14300
C1109       C  0.62161350  0.12012951  0.08626854    -0.15300
C1110       C  0.61825682  0.14080714  0.04172389    -0.30500
H1111       H  0.62682303  0.09602760  0.07613617     0.13700
H1112       H  0.61226467  0.16479013  0.05159478     0.14300
C1113       C  0.97928748  0.15158056  0.99671956    -0.15300
C1114       C  0.00268024  0.12945201  0.98347441    -0.30500
H1115       H  0.98968878  0.17363794  0.01236200     0.13700
H1116       H  0.99327472  0.10673648  0.96971814     0.14300
C1117       C  0.89242371  0.25359060  0.87519016    -0.15300
C1118       C  0.87045611  0.27290624  0.84798091    -0.30500
H1119       H  0.91726856  0.26272380  0.89210590     0.13700
H1120       H  0.84508249  0.26449986  0.83205923     0.14300
C1121       C  0.75018778  0.14259550  0.86743658    -0.15300
C1122       C  0.72659306  0.11967015  0.85539640    -0.30500
H1123       H  0.74099457  0.16540509  0.87968580     0.13700
H1124       H  0.73692532  0.09709892  0.84391021     0.14300
C1125       C  0.97472953  0.15589235  0.49604268    -0.15300
C1126       C  0.99619947  0.13116387  0.49344055    -0.30500
H1127       H  0.98650423  0.17887956  0.50184613     0.13700
H1128       H  0.98511628  0.10814763  0.48553317     0.14300
C1129       C  0.86029772  0.25488424  0.36366240    -0.15300
C1130       C  0.84901882  0.28108537  0.38953205    -0.30500
H1131       H  0.87444435  0.25663013  0.32179258     0.13700
H1132       H  0.83302273  0.27905476  0.42955538     0.14300
C1133       C  0.85733122  0.12678061  0.65165408    -0.15300
C1134       C  0.86390354  0.14731978  0.69429460    -0.30500
H1135       H  0.84914282  0.10305145  0.66296159     0.13700
H1136       H  0.87251558  0.17090849  0.68266527     0.14300
C1137       C  0.86366220  0.15115646  0.19504515    -0.15300
C1138       C  0.85991285  0.13035476  0.15211105    -0.30500
H1139       H  0.86844294  0.17559766  0.18427994     0.13700
H1140       H  0.85679999  0.10573647  0.16284319     0.14300
C1141       C  0.76177873  0.10870068  0.37125271    -0.15300
C1142       C  0.73631908  0.13016192  0.36615509    -0.30500
H1143       H  0.75373226  0.08444223  0.37728404     0.13700
H1144       H  0.74365617  0.15455114  0.36008157     0.14300
C1145       C  0.88475819  0.76645323  0.55840465    -0.15300
C1146       C  0.85901643  0.74553838  0.57418987    -0.30500
H1147       H  0.90865767  0.75764787  0.53761094     0.13700
H1148       H  0.83471156  0.75291885  0.59563025     0.14300
C1149       C  0.99276265  0.88235095  0.47673427    -0.15300
C1150       C  0.01236113  0.85790112  0.45977400    -0.30500
H1151       H  0.00580733  0.90343236  0.49171697     0.13700
H1152       H  0.99888807  0.83666357  0.44647692     0.14300
C1153       C  0.88083351  0.00768407  0.51728502    -0.15300
C1154       C  0.89231046  0.01857064  0.46461109    -0.30500
H1155       H  0.86830579  0.02367539  0.54734271     0.13700
H1156       H  0.90211495  0.00226325  0.43251843     0.14300
C1157       C  0.86986114  0.77150518  0.09282333    -0.15300
C1158       C  0.89446016  0.75084885  0.07910721    -0.30500
H1159       H  0.84283363  0.76389187  0.10367000     0.13700
H1160       H  0.92101919  0.75922453  0.06676943     0.14300
C1161       C  0.99293045  0.88209512  0.98460687    -0.15300
C1162       C  0.01333736  0.85836787  0.96735259    -0.30500
H1163       H  0.00513444  0.90400740  0.99723763     0.13700
H1164       H  0.00043421  0.83675996  0.95460155     0.14300
C1165       C  0.87647996  0.89130637  0.81857312    -0.15300
C1166       C  0.87611804  0.86959773  0.77635656    -0.30500
H1167       H  0.87288781  0.91559908  0.80675130     0.13700
H1168       H  0.88053364  0.84535131  0.78749678     0.14300
C1169       C  0.87259564  0.90431767  0.31972633    -0.15300
C1170       C  0.87010477  0.88353888  0.27644539    -0.30500
H1171       H  0.87172920  0.92907847  0.30987569     0.13700
H1172       H  0.87180174  0.85887235  0.28685363     0.14300
C1173       C  0.88219480  0.00552371  0.99040198    -0.15300
C1174       C  0.85453773  0.02420358  0.98252795    -0.30500
H1175       H  0.90853367  0.01318666  0.97547524     0.13700
H1176       H  0.82778338  0.01534065  0.99178393     0.14300
C1177       C  0.64135173  0.77235931  0.62394600    -0.15300
C1178       C  0.61670606  0.75225773  0.64658988    -0.30500
H1179       H  0.66642538  0.76425136  0.60633021     0.13700
H1180       H  0.59211280  0.76138167  0.66437122     0.14300
C1181       C  0.51655469  0.86554190  0.72662035    -0.15300
C1182       C  0.49228922  0.88510437  0.70564034    -0.30500
H1183       H  0.50742498  0.84370386  0.74686826     0.13700
H1184       H  0.50077554  0.90716325  0.68564959     0.14300
C1185       C  0.61331146  0.00703646  0.70102485    -0.15300
C1186       C  0.61428976  0.01258314  0.75890112    -0.30500
H1187       H  0.61428435  0.02652352  0.67009377     0.13700
H1188       H  0.61631008  0.99312478  0.78956642     0.14300
C1189       C  0.74086769  0.91214115  0.59761887    -0.15300
C1190       C  0.76285478  0.88772340  0.59996035    -0.30500
H1191       H  0.75214786  0.93557068  0.59830604     0.13700
H1192       H  0.75199056  0.86421453  0.59758538     0.14300
C1193       C  0.62151655  0.77103698  0.12922192    -0.15300
C1194       C  0.64912855  0.75188698  0.12203701    -0.30500
H1195       H  0.59593114  0.76042116  0.14144724     0.13700
H1196       H  0.67532081  0.76084671  0.10931906     0.14300
C1197       C  0.50801853  0.88486513  0.21553936    -0.15300
C1198       C  0.48471142  0.86264314  0.23412711    -0.30500
H1199       H  0.49825793  0.90655338  0.19755289     0.13700
H1200       H  0.49475367  0.84109719  0.25233904     0.14300
C1201       C  0.63189221  0.87590355  0.92458446    -0.15300
C1202       C  0.63066178  0.89724549  0.88083064    -0.30500
H1203       H  0.63129290  0.85122775  0.91509797     0.13700
H1204       H  0.63036953  0.92188876  0.89057187     0.14300
C1205       C  0.62988756  0.88013441  0.42403323    -0.15300
C1206       C  0.62613396  0.90100377  0.38017914    -0.30500
H1207       H  0.62887116  0.85542696  0.41483191     0.13700
H1208       H  0.62711042  0.92572418  0.38927009     0.14300
C1209       C  0.61993739  0.00618012  0.19590749    -0.15300
C1210       C  0.63220269  0.00955242  0.25018519    -0.30500
H1211       H  0.61150685  0.02605318  0.17002604     0.13700
H1212       H  0.64353296  0.98998273  0.27355972     0.14300
C1213       C  0.73672720  0.91166310  0.10236029    -0.15300
C1214       C  0.76063302  0.88908791  0.10116452    -0.30500
H1215       H  0.74616004  0.93565178  0.10472777     0.13700
H1216       H  0.75177565  0.86505927  0.09684613     0.14300
loop_ 
_geom_bond_atom_site_label_1 
_geom_bond_atom_site_label_2 
_geom_bond_distance 
_geom_bond_site_symmetry_2 
_ccdc_geom_bond_type 
O1           Ni7   1.919       .  S
O1           C22   1.266       .  A
O2          Ni25   1.944       .  S
O2           C11   1.278       .  A
O3           Ni7   1.911       .  S
O3          Ni25   1.928       .  S
O3          Ni19   1.922       .  S
O3           H26   0.966       .  S
C4           O21   1.277       .  A
C4           O13   1.281       .  A
C4         C1206   1.477       .  S
O5          Ni24   1.919       .  S
O5           C11   1.270       .  A
O6          Ni24   1.921       .  S
O6            C8   1.269       .  A
Ni7          O10   1.906   1_554  S
Ni7          O12   1.889       .  S
C8           O18   1.265       .  A
C8         C1197   1.488       .  S
O9          Ni25   1.912       .  S
O9           C15   1.271   1_554  A
O10          C15   1.270       .  A
C11        C1193   1.480       .  S
O12          C14   1.267       .  A
O13         Ni24   1.927       .  S
C14          O20   1.287       .  A
C14        C1213   1.479       .  S
C15        C1201   1.470       .  S
H16          O17   0.967       .  S
O17         Ni25   1.903       .  S
O17         Ni19   1.882       .  S
O17         Ni24   1.896       .  S
O18         Ni19   1.923       .  S
Ni19         O23   1.879       .  S
Ni19         O21   1.920       .  S
O20         Ni25   1.965       .  S
C22          O23   1.259       .  A
C22        C1209   1.450   1_565  S
O27         Ni33   1.939       .  S
O27          C48   1.275       .  A
O28         Ni51   1.933       .  S
O28          C37   1.269       .  A
O29         Ni33   1.908       .  S
O29         Ni51   1.923       .  S
O29         Ni45   1.921       .  S
O29          H52   0.966       .  S
C30          O47   1.279       .  A
C30          O39   1.277       .  A
C30        C1202   1.467       .  S
O31         Ni50   1.910       .  S
O31          C37   1.266       .  A
O32         Ni50   1.896       .  S
O32          C34   1.264       .  A
Ni33         O36   1.934       .  S
Ni33         O38   1.915       .  S
C34          O44   1.277       .  A
C34        C1181   1.482       .  S
O35         Ni51   1.902       .  S
O35          C41   1.270       .  A
O36          C41   1.278       .  A
C37        C1177   1.486       .  S
O38          C40   1.272       .  A
O39         Ni50   1.909       .  S
C40          O46   1.276       .  A
C40        C1189   1.487       .  S
C41        C1205   1.475       .  S
H42          O43   0.966       .  S
O43         Ni51   1.905       .  S
O43         Ni45   1.893       .  S
O43         Ni50   1.890       .  S
O44         Ni45   1.951       .  S
Ni45         O49   1.913       .  S
Ni45         O47   1.924       .  S
O46         Ni51   1.943       .  S
C48          O49   1.272       .  A
C48        C1185   1.482   1_565  S
O53         Ni59   1.948       .  S
O53          C74   1.278       .  A
O54         Ni77   1.901       .  S
O54          C63   1.260       .  A
O55         Ni59   1.915       .  S
O55         Ni77   1.905       .  S
O55         Ni71   1.911       .  S
O55          H78   0.966       .  S
C56          O73   1.281       .  A
C56          O65   1.278       .  A
C56        C1165   1.478       .  S
O57         Ni76   1.929   1_554  S
O57          C63   1.273       .  A
O58         Ni76   1.907       .  S
O58          C60   1.270       .  A
Ni59         O62   1.943       .  S
Ni59         O64   1.925       .  S
C60          O70   1.273       .  A
C60        C1161   1.491       .  S
O61         Ni77   1.897       .  S
O61          C67   1.271       .  A
O62          C67   1.280       .  A
C63        C1157   1.472       .  S
O64          C66   1.274       .  A
O65         Ni76   1.926       .  S
C66          O72   1.264       .  A
C66        C1214   1.486       .  S
C67        C1170   1.472       .  S
H68          O69   0.966       .  S
O69         Ni77   1.907       .  S
O69         Ni71   1.897       .  S
O69         Ni76   1.901   1_554  S
O70         Ni71   1.940   1_556  S
Ni71         O75   1.905   1_554  S
Ni71         O73   1.927   1_554  S
O72         Ni77   1.916       .  S
C74          O75   1.268   1_554  A
C74        C1173   1.479   1_564  S
O79         Ni85   1.934       .  S
O79         C100   1.273       .  A
O80        Ni103   1.959       .  S
O80          C89   1.277       .  A
O81         Ni85   1.907       .  S
O81        Ni103   1.930       .  S
O81         Ni97   1.919       .  S
O81         H104   0.966       .  S
C82          O99   1.280       .  A
C82          O91   1.278       .  A
C82        C1169   1.481       .  S
O83        Ni102   1.910       .  S
O83          C89   1.264       .  A
O84        Ni102   1.901       .  S
O84          C86   1.266       .  A
Ni85         O88   1.922       .  S
Ni85         O90   1.912       .  S
C86          O96   1.275       .  A
C86        C1149   1.491       .  S
O87        Ni103   1.923       .  S
O87          C93   1.277       .  A
O88          C93   1.276       .  A
C89        C1145   1.486       .  S
O90          C92   1.272       .  A
O91        Ni102   1.911       .  S
C92          O98   1.277       .  A
C92        C1190   1.491       .  S
C93        C1166   1.483       .  S
H94          O95   0.966       .  S
O95        Ni103   1.915       .  S
O95         Ni97   1.904       .  S
O95        Ni102   1.891       .  S
O96         Ni97   1.947       .  S
Ni97        O101   1.924       .  S
Ni97         O99   1.934       .  S
O98        Ni103   1.948       .  S
C100        O101   1.274       .  A
C100       C1153   1.489   1_565  S
O105       Ni111   1.920       .  S
O105        C126   1.268       .  A
O106       Ni129   1.925       .  S
O106        C115   1.273       .  A
O107       Ni111   1.920       .  S
O107       Ni129   1.922       .  S
O107       Ni123   1.935       .  S
O107        H130   0.967       .  S
C108        O125   1.272       .  A
C108        O117   1.276       .  A
C108       C1133   1.479       .  S
O109       Ni128   1.943       .  S
O109        C115   1.274       .  A
O110       Ni128   1.909       .  S
O110        C112   1.271       .  A
Ni111       O114   1.924       .  S
Ni111       O116   1.898       .  S
C112        O122   1.277       .  A
C112       C1125   1.483       .  S
O113       Ni129   1.899       .  S
O113        C119   1.262       .  A
O114        C119   1.267       .  A
C115       C1129   1.493       .  S
O116        C118   1.274       .  A
O117       Ni128   1.929       .  S
C118        O124   1.289       .  A
C118       C1141   1.485       .  S
C119       C1137   1.470       .  S
H120        O121   0.966       .  S
O121       Ni129   1.903       .  S
O121       Ni123   1.919       .  S
O121       Ni128   1.918       .  S
O122       Ni123   1.947       .  S
Ni123       O127   1.929       .  S
Ni123       O125   1.912       .  S
O124       Ni129   1.978       .  S
C126        O127   1.273       .  A
C126       C1154   1.487       .  S
O131       Ni137   1.946       .  S
O131        C152   1.277       .  A
O132       Ni155   1.916       .  S
O132        C141   1.271       .  A
O133       Ni137   1.895       .  S
O133       Ni155   1.901       .  S
O133       Ni149   1.904       .  S
O133        H156   0.966       .  S
C134        O151   1.279       .  A
C134        O143   1.277       .  A
C134       C1138   1.470       .  S
O135       Ni154   1.914   1_556  S
O135        C141   1.267       .  A
O136       Ni154   1.895       .  S
O136        C138   1.265   1_554  A
Ni137       O140   1.939       .  S
Ni137       O142   1.911       .  S
C138        O148   1.282       .  A
C138       C1113   1.486       .  S
O139       Ni155   1.909       .  S
O139        C145   1.277       .  A
O140        C145   1.282       .  A
C141       C1117   1.462       .  S
O142        C144   1.272       .  A
O143       Ni154   1.912       .  S
C144        O150   1.275       .  A
C144       C1121   1.500       .  S
C145       C1134   1.476       .  S
H146        O147   0.966       .  S
O147       Ni155   1.909       .  S
O147       Ni149   1.892       .  S
O147       Ni154   1.881   1_556  S
O148       Ni149   1.964       .  S
Ni149       O153   1.910       .  S
Ni149       O151   1.927   1_556  S
O150       Ni155   1.950       .  S
C152        O153   1.272       .  A
C152       C1174   1.476       .  S
O157       Ni163   1.935       .  S
O157        C178   1.273       .  A
O158       Ni181   1.948       .  S
O158        C167   1.278       .  A
O159       Ni163   1.903       .  S
O159       Ni181   1.909       .  S
O159       Ni175   1.912       .  S
O159        H182   0.966       .  S
C160        O177   1.279       .  A
C160        O169   1.282       .  A
C160       C1109   1.492       .  S
O161       Ni180   1.913       .  S
O161        C167   1.266       .  A
O162       Ni180   1.908       .  S
O162        C164   1.267       .  A
Ni163       O166   1.918       .  S
Ni163       O168   1.911       .  S
C164        O174   1.271       .  A
C164       C1097   1.493       .  S
O165       Ni181   1.947       .  S
O165        C171   1.289       .  A
O166        C171   1.275       .  A
C167       C1101   1.477       .  S
O168        C170   1.273       .  A
O169       Ni180   1.939       .  S
C170        O176   1.277       .  A
C170       C1142   1.494       .  S
C171       C1106   1.488       .  S
H172        O173   0.966       .  S
O173       Ni181   1.937       .  S
O173       Ni175   1.879       .  S
O173       Ni180   1.894       .  S
O174       Ni175   1.942       .  S
Ni175       O179   1.872       .  S
Ni175       O177   1.934       .  S
O176       Ni181   1.947       .  S
C178        O179   1.262       .  A
C178       C1210   1.457       .  S
O183       Ni189   1.938       .  S
O183        C204   1.274       .  A
O184       Ni207   1.935       .  S
O184        C193   1.274       .  A
O185       Ni189   1.913       .  S
O185       Ni207   1.932       .  S
O185       Ni201   1.962       .  S
O185        H208   0.966       .  S
C186        O203   1.293       .  A
C186        O195   1.276       .  A
C186       C1105   1.486       .  S
O187       Ni206   1.910       .  S
O187        C193   1.264       .  A
O188       Ni206   1.906       .  S
O188        C190   1.267       .  A
Ni189       O192   1.944       .  S
Ni189       O194   1.897       .  S
C190        O200   1.265       .  A
C190       C1089   1.483       .  S
O191       Ni207   1.910       .  S
O191        C197   1.265       .  A
O192        C197   1.274       .  A
C193       C1093   1.472       .  S
O194        C196   1.274       .  A
O195       Ni206   1.911       .  S
C196        O202   1.290       .  A
C196       C1122   1.487       .  S
C197       C1110   1.493   1_556  S
H198        O199   0.966       .  S
O199       Ni207   1.901       .  S
O199       Ni201   1.884       .  S
O199       Ni206   1.898       .  S
O200       Ni201   1.926       .  S
Ni201       O205   1.909       .  S
Ni201       O203   1.959       .  S
O202       Ni207   1.978       .  S
C204        O205   1.270       .  A
C204       C1186   1.487       .  S
O209       Ni215   1.929   1_554  S
O209        C230   1.270       .  A
O210       Ni233   1.900       .  S
O210        C219   1.266       .  A
O211       Ni215   1.907       .  S
O211       Ni233   1.908       .  S
O211       Ni227   1.903   1_556  S
O211        H234   0.966       .  S
C212        O229   1.270       .  A
C212        O221   1.279       .  A
C212       C1077   1.472       .  S
O213       Ni232   1.955       .  S
O213        C219   1.278   1_554  A
O214       Ni232   1.917       .  S
O214        C216   1.275       .  A
Ni215       O218   1.921       .  S
Ni215       O220   1.903       .  S
C216        O226   1.276       .  A
C216       C1085   1.491       .  S
O217       Ni233   1.911       .  S
O217        C223   1.272       .  A
O218        C223   1.277       .  A
C219       C1082   1.485       .  S
O220        C222   1.267       .  A
O221       Ni232   1.934       .  S
C222        O228   1.274       .  A
C222       C1162   1.482       .  S
C223       C1074   1.473       .  S
H224        O225   0.966       .  S
O225       Ni233   1.908   1_554  S
O225       Ni227   1.921       .  S
O225       Ni232   1.913       .  S
O226       Ni227   1.941       .  S
Ni227       O231   1.929       .  S
Ni227       O229   1.899       .  S
O228       Ni233   1.944       .  S
C230        O231   1.270       .  A
C230       C1069   1.478       .  S
O235       Ni241   1.933       .  S
O235        C256   1.272       .  A
O236       Ni259   1.896       .  S
O236        C245   1.262       .  A
O237       Ni241   1.913       .  S
O237       Ni259   1.903       .  S
O237       Ni253   1.897       .  S
O237        H260   0.966       .  S
C238        O255   1.266       .  A
C238        O247   1.276       .  A
C238       C1073   1.472       .  S
O239       Ni258   1.944       .  S
O239        C245   1.274       .  A
O240       Ni258   1.893       .  S
O240        C242   1.268       .  A
Ni241       O244   1.926       .  S
Ni241       O246   1.914       .  S
C242        O252   1.285       .  A
C242       C1065   1.479       .  S
O243       Ni259   1.905       .  S
O243        C249   1.271       .  A
O244        C249   1.277       .  A
C245       C1061   1.482       .  S
O246        C248   1.269       .  A
O247       Ni258   1.934       .  S
C248        O254   1.269       .  A
C248       C1150   1.484       .  S
C249       C1078   1.471       .  S
H250        O251   0.966       .  S
O251       Ni259   1.919       .  S
O251       Ni253   1.930       .  S
O251       Ni258   1.915       .  S
O252       Ni253   1.967       .  S
Ni253       O257   1.933       .  S
Ni253       O255   1.894       .  S
O254       Ni259   1.932       .  S
C256        O257   1.274       .  A
C256       C1057   1.483       .  S
O261       Ni267   1.911       .  S
O261        C282   1.267       .  A
O262       Ni285   1.909       .  S
O262        C271   1.270       .  A
O263       Ni267   1.893       .  S
O263       Ni285   1.893       .  S
O263       Ni279   1.904       .  S
O263        H286   0.966       .  S
C264        O281   1.270   1_556  A
C264        O273   1.277       .  A
C264       C1046   1.476       .  S
O265       Ni284   1.942       .  S
O265        C271   1.275       .  A
O266       Ni284   1.905       .  S
O266        C268   1.270       .  A
Ni267       O270   1.911       .  S
Ni267       O272   1.902       .  S
C268        O278   1.281       .  A
C268       C1086   1.485       .  S
O269       Ni285   1.921       .  S
O269        C275   1.277       .  A
O270        C275   1.277       .  A
C271       C1053   1.483       .  S
O272        C274   1.265       .  A
O273       Ni284   1.933   1_556  S
C274        O280   1.276       .  A
C274       C1198   1.485       .  S
C275       C1049   1.469       .  S
H276        O277   0.966       .  S
O277       Ni285   1.922       .  S
O277       Ni279   1.925       .  S
O277       Ni284   1.907       .  S
O278       Ni279   1.956       .  S
Ni279       O283   1.939       .  S
Ni279       O281   1.903       .  S
O280       Ni285   1.948       .  S
C282        O283   1.273       .  A
C282       C1041   1.488       .  S
O287       Ni293   1.927       .  S
O287        C308   1.273       .  A
O288       Ni311   1.891       .  S
O288        C297   1.264       .  A
O289       Ni293   1.905       .  S
O289       Ni311   1.897       .  S
O289       Ni305   1.910       .  S
O289        H312   0.966       .  S
C290        O307   1.274       .  A
C290        O299   1.277       .  A
C290       C1050   1.468       .  S
O291       Ni310   1.947       .  S
O291        C297   1.276       .  A
O292       Ni310   1.915       .  S
O292        C294   1.275       .  A
Ni293       O296   1.926       .  S
Ni293       O298   1.917       .  S
C294        O304   1.274       .  A
C294       C1066   1.491       .  S
O295       Ni311   1.914       .  S
O295        C301   1.274       .  A
O296        C301   1.279       .  A
C297       C1037   1.477       .  S
O298        C300   1.271       .  A
O299       Ni310   1.922       .  S
C300        O306   1.268       .  A
C300       C1182   1.489       .  S
C301       C1045   1.475       .  S
H302        O303   0.966       .  S
O303       Ni311   1.908       .  S
O303       Ni305   1.914       .  S
O303       Ni310   1.909       .  S
O304       Ni305   1.937       .  S
Ni305       O309   1.925       .  S
Ni305       O307   1.907       .  S
O306       Ni311   1.928       .  S
C308        O309   1.270       .  A
C308       C1033   1.490       .  S
O313       Ni319   1.916       .  S
O313        C334   1.269       .  A
O314       Ni337   1.904       .  S
O314        C323   1.268       .  A
O315       Ni319   1.892       .  S
O315       Ni337   1.898       .  S
O315       Ni331   1.909       .  S
O315        H338   0.966       .  S
C316        O333   1.273       .  A
C316        O325   1.278       .  A
C316       C1021   1.473       .  S
O317       Ni336   1.950       .  S
O317        C323   1.277       .  A
O318       Ni336   1.910       .  S
O318        C320   1.273       .  A
Ni319       O322   1.915       .  S
Ni319       O324   1.908       .  S
C320        O330   1.284       .  A
C320       C1030   1.492       .  S
O321       Ni337   1.925       .  S
O321        C327   1.277       .  A
O322        C327   1.278       .  A
C323       C1054   1.487       .  S
O324        C326   1.267       .  A
O325       Ni336   1.932       .  S
C326        O332   1.273       .  A
C326       C1098   1.484       .  S
C327       C1026   1.474       .  S
H328        O329   0.966       .  S
O329       Ni337   1.913       .  S
O329       Ni331   1.925       .  S
O329       Ni336   1.902       .  S
O330       Ni331   1.969       .  S
Ni331       O335   1.950       .  S
Ni331       O333   1.905       .  S
O332       Ni337   1.945       .  S
C334        O335   1.278       .  A
C334       C1017   1.484       .  S
O339       Ni345   1.916       .  S
O339        C360   1.267       .  A
O340       Ni363   1.898       .  S
O340        C349   1.269       .  A
O341       Ni345   1.892       .  S
O341       Ni363   1.890       .  S
O341       Ni357   1.901       .  S
O341        H364   0.966       .  S
C342        O359   1.267       .  A
C342        O351   1.277       .  A
C342       C1025   1.472   1_556  S
O343       Ni362   1.937       .  S
O343        C349   1.275       .  A
O344       Ni362   1.901       .  S
O344        C346   1.270       .  A
Ni345       O348   1.910       .  S
Ni345       O350   1.898       .  S
C346        O356   1.282       .  A
C346       C1013   1.481       .  S
O347       Ni363   1.931       .  S
O347        C353   1.279       .  A
O348        C353   1.276       .  A
C349       C1038   1.471       .  S
O350        C352   1.264       .  A
O351       Ni362   1.939       .  S
C352        O358   1.274       .  A
C352       C1090   1.476       .  S
C353       C1022   1.474       .  S
H354        O355   0.966       .  S
O355       Ni363   1.922       .  S
O355       Ni357   1.916       .  S
O355       Ni362   1.905       .  S
O356       Ni357   1.961       .  S
Ni357       O361   1.927       .  S
Ni357       O359   1.894       .  S
O358       Ni363   1.943       .  S
C360        O361   1.272       .  A
C360       C1009   1.469       .  S
O365       Ni371   1.908       .  S
O365        C386   1.263       .  A
O366       Ni389   1.890       .  S
O366        C375   1.263       .  A
O367       Ni371   1.897       .  S
O367       Ni389   1.892       .  S
O367       Ni383   1.912       .  S
O367        H390   0.966       .  S
C368        O385   1.276       .  A
C368        O377   1.280       .  A
C368       C1005   1.482       .  S
O369       Ni388   1.956       .  S
O369        C375   1.280       .  A
O370       Ni388   1.918       .  S
O370        C372   1.275       .  A
Ni371       O374   1.918       .  S
Ni371       O376   1.905       .  S
C372        O382   1.281       .  A
C372       C1029   1.501       .  S
O373       Ni389   1.925       .  S
O373        C379   1.278       .  A
O374        C379   1.278       .  A
C375       C1062   1.477       .  S
O376        C378   1.266       .  A
O377       Ni388   1.932       .  S
C378        O384   1.270       .  A
C378       C1126   1.489   1_455  S
C379       C1001   1.477       .  S
H380        O381   0.966       .  S
O381       Ni389   1.913       .  S
O381       Ni383   1.919       .  S
O381       Ni388   1.903       .  S
O382       Ni383   1.955       .  S
Ni383       O387   1.943       .  S
Ni383       O385   1.918       .  S
O384       Ni389   1.939       .  S
C386        O387   1.275       .  A
C386        C997   1.474       .  S
O391       Ni397   1.944   1_556  S
O391        C412   1.277       .  A
O392       Ni415   1.906       .  S
O392        C401   1.267       .  A
O393       Ni397   1.911   1_556  S
O393       Ni415   1.905       .  S
O393       Ni409   1.902       .  S
O393        H416   0.966       .  S
C394        O411   1.273       .  A
C394        O403   1.277       .  A
C394       C1002   1.474       .  S
O395       Ni414   1.948       .  S
O395        C401   1.277       .  A
O396       Ni414   1.917       .  S
O396        C398   1.274       .  A
Ni397       O400   1.939       .  S
Ni397       O402   1.921   1_554  S
C398        O408   1.273       .  A
C398       C1014   1.489       .  S
O399       Ni415   1.907   1_554  S
O399        C405   1.273       .  A
O400        C405   1.280       .  A
C401       C1081   1.486       .  S
O402        C404   1.274       .  A
O403       Ni414   1.928       .  S
C404        O410   1.271       .  A
C404       C1114   1.496       .  S
C405       C1006   1.478       .  S
H406        O407   0.966       .  S
O407       Ni415   1.913       .  S
O407       Ni409   1.922       .  S
O407       Ni414   1.915       .  S
O408       Ni409   1.932       .  S
Ni409       O413   1.925       .  S
Ni409       O411   1.909       .  S
O410       Ni415   1.938       .  S
C412        O413   1.269       .  A
C412        C993   1.496       .  S
O417       Ni423   1.936       .  S
O417        C438   1.275       .  A
O418       Ni441   1.905       .  S
O418        C427   1.271       .  A
O419       Ni423   1.910       .  S
O419       Ni441   1.897       .  S
O419       Ni435   1.932       .  S
O419        H442   0.966       .  S
C420        O437   1.289       .  A
C420        O429   1.282       .  A
C420        C977   1.500       .  S
O421       Ni440   1.918       .  S
O421        C427   1.265       .  A
O422       Ni440   1.892       .  S
O422        C424   1.266       .  A
Ni423       O426   1.944       .  S
Ni423       O428   1.920       .  S
C424        O434   1.278       .  A
C424        C989   1.499       .  S
O425       Ni441   1.942       .  S
O425        C431   1.281       .  A
O426        C431   1.281       .  A
C427        C985   1.456       .  S
O428        C430   1.270       .  A
O429       Ni440   1.927       .  S
C430        O436   1.277       .  A
C430       C1130   1.495       .  S
C431        C982   1.503       .  S
H432        O433   0.966       .  S
O433       Ni441   1.920       .  S
O433       Ni435   1.883       .  S
O433       Ni440   1.886       .  S
O434       Ni435   1.959       .  S
Ni435       O439   1.903       .  S
Ni435       O437   1.960       .  S
O436       Ni441   1.953       .  S
C438        O439   1.271       .  A
C438        C973   1.465       .  S
O443       Ni449   1.912       .  S
O443        C464   1.268       .  A
O444       Ni467   1.891       .  S
O444        C453   1.263       .  A
O445       Ni449   1.909       .  S
O445       Ni467   1.886       .  S
O445       Ni461   1.932       .  S
O445        H468   0.966       .  S
C446        O463   1.271       .  A
C446        O455   1.272       .  A
C446        C978   1.494       .  S
O447       Ni466   1.918       .  S
O447        C453   1.272       .  A
O448       Ni466   1.898       .  S
O448        C450   1.271       .  A
Ni449       O452   1.930   1_556  S
Ni449       O454   1.907       .  S
C450        O460   1.279       .  A
C450        C965   1.490       .  S
O451       Ni467   1.959   1_554  S
O451        C457   1.286       .  A
O452        C457   1.279       .  A
C453        C969   1.465   1_556  S
O454        C456   1.268       .  A
O455       Ni466   1.937       .  S
C456        O462   1.268       .  A
C456        C961   1.485       .  S
C457        C981   1.498       .  S
H458        O459   0.966       .  S
O459       Ni467   1.959       .  S
O459       Ni461   1.918       .  S
O459       Ni466   1.916       .  S
O460       Ni461   1.957       .  S
Ni461       O465   1.912       .  S
Ni461       O463   1.935       .  S
O462       Ni467   1.934       .  S
C464        O465   1.262       .  A
C464       C1118   1.474       .  S
O469       Ni475   1.905   1_554  S
O469        C490   1.266       .  A
O470       Ni493   1.873       .  S
O470        C479   1.256   1_556  A
O471       Ni475   1.924       .  S
O471       Ni493   1.903       .  S
O471       Ni487   1.928   1_556  S
O471        H494   0.966       .  S
C472        O489   1.271       .  A
C472        O481   1.269       .  A
C472        C953   1.478       .  S
O473       Ni492   1.927       .  S
O473        C479   1.269       .  A
O474       Ni492   1.893       .  S
O474        C476   1.272       .  A
Ni475       O478   1.935       .  S
Ni475       O480   1.880       .  S
C476        O486   1.278       .  A
C476        C957   1.476       .  S
O477       Ni493   1.895       .  S
O477        C483   1.262       .  A
O478        C483   1.271       .  A
C479        C970   1.456   1_554  S
O480        C482   1.264       .  A
O481       Ni492   1.916       .  S
C482        O488   1.271       .  A
C482        C945   1.466       .  S
C483        C950   1.474       .  S
H484        O485   0.966       .  S
O485       Ni493   1.917   1_554  S
O485       Ni487   1.915       .  S
O485       Ni492   1.921       .  S
O486       Ni487   1.946       .  S
Ni487       O491   1.913       .  S
Ni487       O489   1.918       .  S
O488       Ni493   1.939       .  S
C490        O491   1.270       .  A
C490       C1158   1.458       .  S
O495       Ni501   1.937       .  S
O495        C516   1.275       .  A
O496       Ni519   1.936       .  S
O496        C505   1.271       .  A
O497       Ni501   1.908       .  S
O497       Ni519   1.916       .  S
O497       Ni513   1.902       .  S
O497        H520   0.964       .  S
C498        O515   1.268       .  A
C498        O507   1.275       .  A
C498        C949   1.472       .  S
O499       Ni518   1.923       .  S
O499        C505   1.270       .  A
O500       Ni518   1.893       .  S
O500        C502   1.266       .  A
Ni501       O504   1.930       .  S
Ni501       O506   1.906       .  S
C502        O512   1.278       .  A
C502        C941   1.469       .  S
O503       Ni519   1.915       .  S
O503        C509   1.278       .  A
O504        C509   1.277       .  A
C505        C990   1.480       .  S
O506        C508   1.269       .  A
O507       Ni518   1.924       .  S
C508        O514   1.267       .  A
C508        C937   1.472       .  S
C509        C954   1.476       .  S
H510        O511   0.967       .  S
O511       Ni519   1.930       .  S
O511       Ni513   1.924       .  S
O511       Ni518   1.911       .  S
O512       Ni513   1.937       .  S
Ni513       O517   1.928       .  S
Ni513       O515   1.906       .  S
O514       Ni519   1.927       .  S
C516        O517   1.270       .  A
C516       C1146   1.500       .  S
O521       Ni527   1.921       .  S
O521        C542   1.270       .  A
O522       Ni545   1.902       .  S
O522        C531   1.265       .  A
O523       Ni527   1.914       .  S
O523       Ni545   1.903       .  S
O523       Ni539   1.902       .  S
O523        H546   0.966       .  S
C524        O541   1.268       .  A
C524        O533   1.277       .  A
C524        C925   1.476   1_554  S
O525       Ni544   1.962       .  S
O525        C531   1.278       .  A
O526       Ni544   1.898       .  S
O526        C528   1.271       .  A
Ni527       O530   1.922       .  S
Ni527       O532   1.896       .  S
C528        O538   1.277       .  A
C528        C958   1.467       .  S
O529       Ni545   1.907       .  S
O529        C535   1.272       .  A
O530        C535   1.275       .  A
C531        C933   1.495       .  S
O532        C534   1.265       .  A
O533       Ni544   1.948       .  S
C534        O540   1.271       .  A
C534        C921   1.472       .  S
C535        C929   1.468       .  S
H536        O537   0.966       .  S
O537       Ni545   1.923       .  S
O537       Ni539   1.933       .  S
O537       Ni544   1.925       .  S
O538       Ni539   1.939       .  S
Ni539       O543   1.940       .  S
Ni539       O541   1.895       .  S
O540       Ni545   1.930       .  S
C542        O543   1.272       .  A
C542       C1194   1.493       .  S
O547       Ni553   1.918       .  S
O547        C568   1.267       .  A
O548       Ni571   1.905       .  S
O548        C557   1.269       .  A
O549       Ni553   1.896       .  S
O549       Ni571   1.898       .  S
O549       Ni565   1.910       .  S
O549        H572   0.966       .  S
C550        O567   1.271       .  A
C550        O559   1.273       .  A
C550        C930   1.475       .  S
O551       Ni570   1.933       .  S
O551        C557   1.272       .  A
O552       Ni570   1.906       .  S
O552        C554   1.274       .  A
Ni553       O556   1.914       .  S
Ni553       O558   1.898       .  S
C554        O564   1.273       .  A
C554        C942   1.475       .  S
O555       Ni571   1.931       .  S
O555        C561   1.278       .  A
O556        C561   1.277       .  A
C557        C917   1.479       .  S
O558        C560   1.265       .  A
O559       Ni570   1.924       .  S
C560        O566   1.270       .  A
C560        C913   1.467       .  S
C561        C926   1.481       .  S
H562        O563   0.966       .  S
O563       Ni571   1.924       .  S
O563       Ni565   1.920       .  S
O563       Ni570   1.907       .  S
O564       Ni565   1.936       .  S
Ni565       O569   1.928       .  S
Ni565       O567   1.910       .  S
O566       Ni571   1.925       .  S
C568        O569   1.269       .  A
C568       C1178   1.469       .  S
O573       Ni579   1.913       .  S
O573        C594   1.271       .  A
O574       Ni597   1.905       .  S
O574        C583   1.265       .  A
O575       Ni579   1.921       .  S
O575       Ni597   1.910       .  S
O575       Ni591   1.938       .  S
O575        H598   0.965       .  S
C576        O593   1.277       .  A
C576        O585   1.278       .  A
C576        C905   1.485       .  S
O577       Ni596   1.959       .  S
O577        C583   1.277       .  A
O578       Ni596   1.908       .  S
O578        C580   1.271       .  A
Ni579       O582   1.938       .  S
Ni579       O584   1.884       .  S
C580        O590   1.266       .  A
C580        C986   1.462       .  S
O581       Ni597   1.882       .  S
O581        C587   1.256       .  A
O582        C587   1.269       .  A
C583        C934   1.497       .  S
O584        C586   1.268       .  A
O585       Ni596   1.944       .  S
C586        O592   1.285       .  A
C586        C901   1.470       .  S
C587        C909   1.467       .  S
H588        O589   0.966       .  S
O589       Ni597   1.899       .  S
O589       Ni591   1.921       .  S
O589       Ni596   1.924       .  S
O590       Ni591   1.912       .  S
Ni591       O595   1.933       .  S
Ni591       O593   1.916       .  S
O592       Ni597   1.960       .  S
C594        O595   1.272       .  A
C594       C1102   1.486       .  S
O599       Ni605   1.938       .  S
O599        C620   1.275       .  A
O600       Ni623   1.916       .  S
O600        C609   1.271       .  A
O601       Ni605   1.907       .  S
O601       Ni623   1.906       .  S
O601       Ni617   1.900       .  S
O601        H624   0.965       .  S
C602        O619   1.266       .  A
C602        O611   1.273       .  A
C602        C910   1.473   1_556  S
O603       Ni622   1.924       .  S
O603        C609   1.270       .  A
O604       Ni622   1.905       .  S
O604        C606   1.271       .  A
Ni605       O608   1.931       .  S
Ni605       O610   1.914       .  S
C606        O616   1.279       .  A
C606        C966   1.480       .  S
O607       Ni623   1.929       .  S
O607        C613   1.281       .  A
O608        C613   1.278       .  A
C609        C918   1.477       .  S
O610        C612   1.271       .  A
O611       Ni622   1.917       .  S
C612        O618   1.269       .  A
C612        C897   1.488       .  S
C613        C906   1.488       .  S
H614        O615   0.965       .  S
O615       Ni623   1.930       .  S
O615       Ni617   1.921       .  S
O615       Ni622   1.909       .  S
O616       Ni617   1.945       .  S
Ni617       O621   1.911       .  S
Ni617       O619   1.906       .  S
O618       Ni623   1.934       .  S
C620        O621   1.265       .  A
C620       C1094   1.484       .  S
O625       Ni631   1.929   1_554  S
O625        C646   1.272       .  A
O626       Ni649   1.895       .  S
O626        C635   1.265       .  A
O627       Ni631   1.893   1_554  S
O627       Ni649   1.890       .  S
O627       Ni643   1.902       .  S
O627        H650   0.966   1_554  S
C628        O645   1.273       .  A
C628        O637   1.276       .  A
C628        C885   1.473       .  S
O629       Ni648   1.925       .  S
O629        C635   1.269       .  A
O630       Ni648   1.905       .  S
O630        C632   1.269       .  A
Ni631       O634   1.930       .  S
Ni631       O636   1.914       .  S
C632        O642   1.275       .  A
C632       C1070   1.491       .  S
O633       Ni649   1.923   1_556  S
O633        C639   1.279       .  A
O634        C639   1.280       .  A
C635        C946   1.458   1_455  S
O636        C638   1.271       .  A
O637       Ni648   1.925       .  S
C638        O644   1.271   1_556  A
C638        C893   1.493       .  S
C639        C881   1.480       .  S
H640        O641   0.966       .  S
O641       Ni649   1.915       .  S
O641       Ni643   1.904       .  S
O641       Ni648   1.906       .  S
O642       Ni643   1.945       .  S
Ni643       O647   1.901       .  S
Ni643       O645   1.911       .  S
O644       Ni649   1.938       .  S
C646        O647   1.269       .  A
C646        C889   1.466       .  S
O651       Ni657   1.923       .  S
O651        C672   1.270       .  A
O652       Ni675   1.909       .  S
O652        C661   1.272       .  A
O653       Ni657   1.888       .  S
O653       Ni675   1.895       .  S
O653       Ni669   1.908       .  S
O653        H676   0.966       .  S
C654        O671   1.277       .  A
C654        O663   1.278       .  A
C654        C882   1.481       .  S
O655       Ni674   1.927       .  S
O655        C661   1.271       .  A
O656       Ni674   1.911       .  S
O656        C658   1.269       .  A
Ni657       O660   1.919       .  S
Ni657       O662   1.899       .  S
C658        O668   1.274       .  A
C658       C1058   1.497       .  S
O659       Ni675   1.925       .  S
O659        C665   1.278       .  A
O660        C665   1.278       .  A
C661        C938   1.468   1_455  S
O662        C664   1.268       .  A
O663       Ni674   1.929       .  S
C664        O670   1.282       .  A
C664        C877   1.504       .  S
C665        C886   1.476       .  S
H666        O667   0.966       .  S
O667       Ni675   1.911       .  S
O667       Ni669   1.902       .  S
O667       Ni674   1.904       .  S
O668       Ni669   1.947       .  S
Ni669       O673   1.906       .  S
Ni669       O671   1.921       .  S
O670       Ni675   1.965       .  S
C672        O673   1.269       .  A
C672        C873   1.464       .  S
O677       Ni683   1.930       .  S
O677        C698   1.272       .  A
O678       Ni701   1.913       .  S
O678        C687   1.263       .  A
O679       Ni683   1.907       .  S
O679       Ni701   1.910       .  S
O679       Ni695   1.911       .  S
O679        H702   0.966       .  S
C680        O697   1.275       .  A
C680        O689   1.275       .  A
C680        C861   1.476       .  S
O681       Ni700   1.934       .  S
O681        C687   1.273       .  A
O682       Ni700   1.897       .  S
O682        C684   1.269       .  A
Ni683       O686   1.924       .  S
Ni683       O688   1.917       .  S
C684        O694   1.272       .  A
C684        C974   1.475       .  S
O685       Ni701   1.916       .  S
O685        C691   1.276       .  A
O686        C691   1.277       .  A
C687        C998   1.487       .  S
O688        C690   1.271       .  A
O689       Ni700   1.924       .  S
C690        O696   1.262       .  A
C690        C869   1.475       .  S
C691        C865   1.473       .  S
H692        O693   0.966       .  S
O693       Ni701   1.916       .  S
O693       Ni695   1.927       .  S
O693       Ni700   1.910       .  S
O694       Ni695   1.933       .  S
Ni695       O699   1.941       .  S
Ni695       O697   1.913       .  S
O696       Ni701   1.905       .  S
C698        O699   1.273       .  A
C698        C878   1.489       .  S
O703       Ni709   1.924       .  S
O703        C724   1.270       .  A
O704       Ni727   1.956       .  S
O704        C713   1.281       .  A
O705       Ni709   1.893       .  S
O705       Ni727   1.921       .  S
O705       Ni721   1.917       .  S
O705        H728   0.966       .  S
C706        O723   1.281       .  A
C706        O715   1.277       .  A
C706        C866   1.476       .  S
O707       Ni726   1.913   1_556  S
O707        C713   1.266       .  A
O708       Ni726   1.899       .  S
O708        C710   1.266       .  A
Ni709       O712   1.918       .  S
Ni709       O714   1.893       .  S
C710        O720   1.276   1_554  A
C710        C962   1.480       .  S
O711       Ni727   1.923       .  S
O711        C717   1.278       .  A
O712        C717   1.276       .  A
C713        C994   1.485       .  S
O714        C716   1.266       .  A
O715       Ni726   1.909       .  S
C716        O722   1.282       .  A
C716        C857   1.482       .  S
C717        C862   1.477       .  S
H718        O719   0.966       .  S
O719       Ni727   1.910       .  S
O719       Ni721   1.899       .  S
O719       Ni726   1.884   1_556  S
O720       Ni721   1.949       .  S
Ni721       O725   1.932       .  S
Ni721       O723   1.934   1_556  S
O722       Ni727   1.960       .  S
C724        O725   1.275       .  A
C724        C894   1.479       .  S
O729       Ni735   1.920       .  S
O729        C750   1.268       .  A
O730       Ni753   1.936       .  S
O730        C739   1.274       .  A
O731       Ni735   1.917       .  S
O731       Ni753   1.926       .  S
O731       Ni747   1.954       .  S
O731        H754   0.968       .  S
C732        O749   1.282       .  A
C732        O741   1.280       .  A
C732        C849   1.480       .  S
O733       Ni752   1.928       .  S
O733        C739   1.273       .  A
O734       Ni752   1.907       .  S
O734        C736   1.269       .  A
Ni735       O738   1.928       .  S
Ni735       O740   1.889       .  S
C736        O746   1.266       .  A
C736        C902   1.478       .  S
O737       Ni753   1.902       .  S
O737        C743   1.262       .  A
O738        C743   1.268       .  A
C739       C1018   1.498       .  S
O740        C742   1.272       .  A
O741       Ni752   1.927       .  S
C742        O748   1.290       .  A
C742        C870   1.471       .  S
C743        C845   1.475       .  S
H744        O745   0.967       .  S
O745       Ni753   1.885       .  S
O745       Ni747   1.887       .  S
O745       Ni752   1.895       .  S
O746       Ni747   1.923       .  S
Ni747       O751   1.910       .  S
Ni747       O749   1.924       .  S
O748       Ni753   1.964       .  S
C750        O751   1.270       .  A
C750        C854   1.478       .  S
O755       Ni761   1.939       .  S
O755        C776   1.274       .  A
O756       Ni779   1.925       .  S
O756        C765   1.266       .  A
O757       Ni761   1.916       .  S
O757       Ni779   1.921       .  S
O757       Ni773   1.917       .  S
O757        H780   0.966       .  S
C758        O775   1.275       .  A
C758        O767   1.277       .  A
C758        C846   1.475       .  S
O759       Ni778   1.923       .  S
O759        C765   1.269       .  A
O760       Ni778   1.895       .  S
O760        C762   1.265       .  A
Ni761       O764   1.930       .  S
Ni761       O766   1.922       .  S
C762        O772   1.279       .  A
C762        C898   1.481       .  S
O763       Ni779   1.913       .  S
O763        C769   1.274       .  A
O764        C769   1.276       .  A
C765       C1010   1.483       .  S
O766        C768   1.274       .  A
O767       Ni778   1.923       .  S
C768        O774   1.269       .  A
C768        C858   1.489       .  S
C769        C850   1.478   1_556  S
H770        O771   0.966       .  S
O771       Ni779   1.915       .  S
O771       Ni773   1.908       .  S
O771       Ni778   1.904       .  S
O772       Ni773   1.953       .  S
Ni773       O777   1.920       .  S
Ni773       O775   1.918       .  S
O774       Ni779   1.930       .  S
C776        O777   1.273       .  A
C776        C841   1.488       .  S
O781       Ni787   1.923       .  S
O781        C802   1.268       .  A
O782       Ni805   1.929       .  S
O782        C791   1.268       .  A
O783       Ni787   1.911       .  S
O783       Ni805   1.919       .  S
O783       Ni799   1.912       .  S
O783        H806   0.966       .  S
C784        O801   1.275       .  A
C784        O793   1.277       .  A
C784        C837   1.471       .  S
O785       Ni804   1.924       .  S
O785        C791   1.268       .  A
O786       Ni804   1.898       .  S
O786        C788   1.267       .  A
Ni787       O790   1.912       .  S
Ni787       O792   1.898       .  S
C788        O798   1.270       .  A
C788        C922   1.479       .  S
O789       Ni805   1.910       .  S
O789        C795   1.274       .  A
O790        C795   1.272       .  A
C791       C1042   1.474       .  S
O792        C794   1.269       .  A
O793       Ni804   1.922       .  S
C794        O800   1.270       .  A
C794        C890   1.470       .  S
C795        C834   1.466   1_554  S
H796        O797   0.966       .  S
O797       Ni805   1.909       .  S
O797       Ni799   1.906       .  S
O797       Ni804   1.904       .  S
O798       Ni799   1.930       .  S
Ni799       O803   1.913       .  S
Ni799       O801   1.913       .  S
O800       Ni805   1.923       .  S
C802        O803   1.269       .  A
C802        C853   1.475       .  S
O807       Ni813   1.937       .  S
O807        C828   1.273       .  A
O808       Ni831   1.939       .  S
O808        C817   1.269       .  A
O809       Ni813   1.912       .  S
O809       Ni831   1.931       .  S
O809       Ni825   1.929       .  S
O809        H832   0.966       .  S
C810        O827   1.278       .  A
C810        O819   1.273       .  A
C810        C833   1.469       .  S
O811       Ni830   1.912       .  S
O811        C817   1.262       .  A
O812       Ni830   1.892       .  S
O812        C814   1.267       .  A
Ni813       O816   1.928       .  S
Ni813       O818   1.902       .  S
C814        O824   1.269       .  A
C814        C914   1.476       .  S
O815       Ni831   1.901       .  S
O815        C821   1.268       .  A
O816        C821   1.274       .  A
C817       C1034   1.479       .  S
O818        C820   1.273       .  A
O819       Ni830   1.899       .  S
C820        O826   1.273       .  A
C820        C874   1.469       .  S
C821        C838   1.473       .  S
H822        O823   0.967       .  S
O823       Ni831   1.901       .  S
O823       Ni825   1.907       .  S
O823       Ni830   1.902       .  S
O824       Ni825   1.927       .  S
Ni825       O829   1.921       .  S
Ni825       O827   1.926       .  S
O826       Ni831   1.929       .  S
C828        O829   1.272       .  A
C828        C842   1.491       .  S
C833        C834   1.349       .  D
C833        H835   1.087       .  S
C834        H836   1.087       .  S
C837        C838   1.345       .  D
C837        H839   1.087       .  S
C838        H840   1.087       .  S
C841        C842   1.345       .  D
C841        H843   1.087       .  S
C842        H844   1.087       .  S
C845        C846   1.346       .  D
C845        H847   1.087       .  S
C846        H848   1.087       .  S
C849        C850   1.352       .  D
C849        H851   1.086       .  S
C850        H852   1.087       .  S
C853        C854   1.342       .  D
C853        H855   1.087       .  S
C854        H856   1.087       .  S
C857        C858   1.341       .  D
C857        H859   1.087       .  S
C858        H860   1.086       .  S
C861        C862   1.351       .  D
C861        H863   1.087       .  S
C862        H864   1.087       .  S
C865        C866   1.347       .  D
C865        H867   1.087       .  S
C866        H868   1.087       .  S
C869        C870   1.336       .  D
C869        H871   1.087       .  S
C870        H872   1.087       .  S
C873        C874   1.339       .  D
C873        H875   1.088       .  S
C874        H876   1.087       .  S
C877        C878   1.358       .  D
C877        H879   1.086       .  S
C878        H880   1.087       .  S
C881        C882   1.349       .  D
C881        H883   1.087       .  S
C882        H884   1.087       .  S
C885        C886   1.345       .  D
C885        H887   1.087       .  S
C886        H888   1.087       .  S
C889        C890   1.342       .  D
C889        H891   1.087       .  S
C890        H892   1.087       .  S
C893        C894   1.346       .  D
C893        H895   1.086       .  S
C894        H896   1.087       .  S
C897        C898   1.343       .  D
C897        H899   1.086       .  S
C898        H900   1.087       .  S
C901        C902   1.339       .  D
C901        H903   1.087       .  S
C902        H904   1.087       .  S
C905        C906   1.355       .  D
C905        H907   1.086       .  S
C906        H908   1.086       .  S
C909        C910   1.339       .  D
C909        H911   1.087       .  S
C910        H912   1.087       .  S
C913        C914   1.344       .  D
C913        H915   1.087       .  S
C914        H916   1.086       .  S
C917        C918   1.341       .  D
C917        H919   1.087       .  S
C918        H920   1.087       .  S
C921        C922   1.345       .  D
C921        H923   1.087       .  S
C922        H924   1.087       .  S
C925        C926   1.347       .  D
C925        H927   1.087       .  S
C926        H928   1.086       .  S
C929        C930   1.347       .  D
C929        H931   1.087       .  S
C930        H932   1.087       .  S
C933        C934   1.348       .  D
C933        H935   1.087       .  S
C934        H936   1.086       .  S
C937        C938   1.338       .  D
C937        H939   1.087       .  S
C938        H940   1.087       .  S
C941        C942   1.338       .  D
C941        H943   1.087       .  S
C942        H944   1.087       .  S
C945        C946   1.341   1_556  D
C945        H947   1.087       .  S
C946        H948   1.088       .  S
C949        C950   1.342       .  D
C949        H951   1.087       .  S
C950        H952   1.087       .  S
C953        C954   1.353       .  D
C953        H955   1.086       .  S
C954        H956   1.087       .  S
C957        C958   1.345       .  D
C957        H959   1.086       .  S
C958        H960   1.087       .  S
C961        C962   1.344   1_656  D
C961        H963   1.086       .  S
C962        H964   1.088   1_455  S
C965        C966   1.349       .  D
C965        H967   1.086       .  S
C966        H968   1.087       .  S
C969        C970   1.337   1_554  D
C969        H971   1.087       .  S
C970        H972   1.088       .  S
C973        C974   1.343   1_655  D
C973        H975   1.087   1_655  S
C974        H976   1.087       .  S
C977        C978   1.355       .  D
C977        H979   1.086       .  S
C978        H980   1.087       .  S
C981        C982   1.352       .  D
C981        H983   1.087       .  S
C982        H984   1.086       .  S
C985        C986   1.332       .  D
C985        H987   1.087       .  S
C986        H988   1.088       .  S
C989        C990   1.355       .  D
C989        H991   1.086       .  S
C990        H992   1.087       .  S
C993        C994   1.345       .  D
C993        H995   1.086       .  S
C994        H996   1.088       .  S
C997        C998   1.341       .  D
C997        H999   1.088       .  S
C998       H1000   1.086       .  S
C1001      C1002   1.346       .  D
C1001      H1003   1.087       .  S
C1002      H1004   1.087       .  S
C1005      C1006   1.347       .  D
C1005      H1007   1.087       .  S
C1006      H1008   1.087       .  S
C1009      C1010   1.341       .  D
C1009      H1011   1.088       .  S
C1010      H1012   1.086       .  S
C1013      C1014   1.346       .  D
C1013      H1015   1.087       .  S
C1014      H1016   1.086       .  S
C1017      C1018   1.349       .  D
C1017      H1019   1.088       .  S
C1018      H1020   1.085       .  S
C1021      C1022   1.347       .  D
C1021      H1023   1.087       .  S
C1022      H1024   1.087       .  S
C1025      C1026   1.343       .  D
C1025      H1027   1.087       .  S
C1026      H1028   1.087       .  S
C1029      C1030   1.354       .  D
C1029      H1031   1.086       .  S
C1030      H1032   1.087       .  S
C1033      C1034   1.346       .  D
C1033      H1035   1.086       .  S
C1034      H1036   1.087       .  S
C1037      C1038   1.345   1_565  D
C1037      H1039   1.087   1_565  S
C1038      H1040   1.087   1_545  S
C1041      C1042   1.351       .  D
C1041      H1043   1.086       .  S
C1042      H1044   1.088       .  S
C1045      C1046   1.344       .  D
C1045      H1047   1.087       .  S
C1046      H1048   1.087       .  S
C1049      C1050   1.344       .  D
C1049      H1051   1.087       .  S
C1050      H1052   1.087       .  S
C1053      C1054   1.348   1_565  D
C1053      H1055   1.087   1_565  S
C1054      H1056   1.087   1_545  S
C1057      C1058   1.351       .  D
C1057      H1059   1.086       .  S
C1058      H1060   1.086       .  S
C1061      C1062   1.340   1_565  D
C1061      H1063   1.087       .  S
C1062      H1064   1.087       .  S
C1065      C1066   1.345       .  D
C1065      H1067   1.087       .  S
C1066      H1068   1.086       .  S
C1069      C1070   1.350       .  D
C1069      H1071   1.087       .  S
C1070      H1072   1.086       .  S
C1073      C1074   1.342       .  D
C1073      H1075   1.087       .  S
C1074      H1076   1.087       .  S
C1077      C1078   1.342       .  D
C1077      H1079   1.087       .  S
C1078      H1080   1.087       .  S
C1081      C1082   1.345   1_545  D
C1081      H1083   1.087   1_556  S
C1082      H1084   1.087       .  S
C1085      C1086   1.347       .  D
C1085      H1087   1.086       .  S
C1086      H1088   1.087       .  S
C1089      C1090   1.342       .  D
C1089      H1091   1.086       .  S
C1090      H1092   1.088       .  S
C1093      C1094   1.342       .  D
C1093      H1095   1.088       .  S
C1094      H1096   1.086       .  S
C1097      C1098   1.350       .  D
C1097      H1099   1.086       .  S
C1098      H1100   1.087       .  S
C1101      C1102   1.344       .  D
C1101      H1103   1.089       .  S
C1102      H1104   1.085       .  S
C1105      C1106   1.336       .  D
C1105      H1107   1.087       .  S
C1106      H1108   1.087       .  S
C1109      C1110   1.349       .  D
C1109      H1111   1.087       .  S
C1110      H1112   1.087       .  S
C1113      C1114   1.344   1_655  D
C1113      H1115   1.088   1_556  S
C1114      H1116   1.086   1_455  S
C1117      C1118   1.338       .  D
C1117      H1119   1.088       .  S
C1118      H1120   1.086       .  S
C1121      C1122   1.350       .  D
C1121      H1123   1.086       .  S
C1122      H1124   1.087       .  S
C1125      C1126   1.350       .  D
C1125      H1127   1.087       .  S
C1126      H1128   1.086       .  S
C1129      C1130   1.353       .  D
C1129      H1131   1.086       .  S
C1130      H1132   1.086       .  S
C1133      C1134   1.348       .  D
C1133      H1135   1.087       .  S
C1134      H1136   1.087       .  S
C1137      C1138   1.345       .  D
C1137      H1139   1.087       .  S
C1138      H1140   1.087       .  S
C1141      C1142   1.349       .  D
C1141      H1143   1.087       .  S
C1142      H1144   1.086       .  S
C1145      C1146   1.350       .  D
C1145      H1147   1.088       .  S
C1146      H1148   1.086       .  S
C1149      C1150   1.354   1_655  D
C1149      H1151   1.086   1_655  S
C1150      H1152   1.087   1_455  S
C1153      C1154   1.344       .  D
C1153      H1155   1.087       .  S
C1154      H1156   1.087       .  S
C1157      C1158   1.333       .  D
C1157      H1159   1.087       .  S
C1158      H1160   1.088       .  S
C1161      C1162   1.349   1_655  D
C1161      H1163   1.086   1_655  S
C1162      H1164   1.087       .  S
C1165      C1166   1.352       .  D
C1165      H1167   1.087       .  S
C1166      H1168   1.086       .  S
C1169      C1170   1.346       .  D
C1169      H1171   1.086       .  S
C1170      H1172   1.087       .  S
C1173      C1174   1.341       .  D
C1173      H1175   1.087       .  S
C1174      H1176   1.087       .  S
C1177      C1178   1.347       .  D
C1177      H1179   1.086       .  S
C1178      H1180   1.088       .  S
C1181      C1182   1.344       .  D
C1181      H1183   1.087       .  S
C1182      H1184   1.086       .  S
C1185      C1186   1.346       .  D
C1185      H1187   1.087       .  S
C1186      H1188   1.087   1_545  S
C1189      C1190   1.351       .  D
C1189      H1191   1.087       .  S
C1190      H1192   1.086       .  S
C1193      C1194   1.349       .  D
C1193      H1195   1.089       .  S
C1194      H1196   1.085       .  S
C1197      C1198   1.344       .  D
C1197      H1199   1.087       .  S
C1198      H1200   1.087       .  S
C1201      C1202   1.347       .  D
C1201      H1203   1.087       .  S
C1202      H1204   1.087       .  S
C1205      C1206   1.345       .  D
C1205      H1207   1.087       .  S
C1206      H1208   1.087       .  S
C1209      C1210   1.338       .  D
C1209      H1211   1.087       .  S
C1210      H1212   1.088   1_545  S
C1213      C1214   1.337       .  D
C1213      H1215   1.088       .  S
C1214      H1216   1.087       .  S
