geometry optimzed in LAMMPS
_audit_creation_date              2020-11-30 
_audit_creation_method            'lammps2cif' 
_symmetry_space_group_name_H-M    'P1' 
_symmetry_Int_Tables_number       1 
_symmetry_cell_setting            triclinic 
loop_ 
_symmetry_equiv_pos_as_xyz 
  x,y,z 
_cell_length_a                    42.38751729 
_cell_length_b                    43.40052517510807 
_cell_length_c                    35.16664802537562 
_cell_angle_alpha                 89.92064452909264 
_cell_angle_beta                  89.7681322995176 
_cell_angle_gamma                 122.77876721531226 
loop_ 
_atom_site_label 
_atom_site_type_symbol 
_atom_site_fract_x 
_atom_site_fract_y 
_atom_site_fract_z 
_atom_site_charge 
O1          O  0.19359223  0.68607703  0.18317433    -0.80200
O2          O  0.25123681  0.85191212  0.22206136    -0.64900
O3          O  0.19469206  0.74998678  0.19789071    -1.11500
C4          C  0.21942566  0.79500135  0.07194200     1.06600
O5          O  0.21760820  0.86296439  0.18312067    -0.78100
O6          O  0.16318257  0.80464324  0.14194181    -0.65700
Ni7        Ni  0.20741326  0.71950900  0.22460154     1.34900
C8          C  0.14421336  0.77050143  0.13489453     0.85400
O9          O  0.21227543  0.79208797  0.26448248    -0.78700
O10         O  0.22172429  0.74698772  0.27147777    -0.89000
C11         C  0.24149039  0.87297948  0.20978141     0.85000
O12         O  0.25753643  0.74713054  0.20623551    -0.67200
O13         O  0.21487008  0.81944717  0.08611548    -0.86400
C14         C  0.28097128  0.78116391  0.21123304     0.85800
C15         C  0.21803936  0.77187735  0.28533892     1.07400
H16         H  0.25866394  0.82125452  0.15352724     0.39200
O17         O  0.23214423  0.80945369  0.15871535    -1.09100
O18         O  0.15907997  0.75167956  0.13365794    -0.65800
Ni19       Ni  0.20768010  0.75951773  0.14438455     1.26300
O20         O  0.27063306  0.80357996  0.21725374    -0.66000
O21         O  0.22154534  0.77177004  0.09216261    -0.78300
C22         C  0.18503576  0.68367162  0.14828865     0.85200
O23         O  0.18539919  0.70929833  0.13045686    -0.65500
Ni24       Ni  0.21610086  0.83882490  0.13592257     1.27400
Ni25       Ni  0.22317304  0.80087569  0.21152173     1.26100
H26         H  0.16831291  0.74020966  0.20174636     0.39700
O27         O  0.19630935  0.68963371  0.68260106    -0.80200
O28         O  0.25143948  0.85460034  0.72174855    -0.64900
O29         O  0.19552992  0.75269333  0.69787953    -1.11500
C30         C  0.22488298  0.79972580  0.57129056     1.06600
O31         O  0.21650446  0.86344772  0.68244745    -0.78100
O32         O  0.16678198  0.80951516  0.63419292    -0.65700
Ni33       Ni  0.20638395  0.72103972  0.72499385     1.34900
C34         C  0.14693802  0.77489283  0.63055292     0.85400
O35         O  0.21336087  0.79530012  0.76483455    -0.78700
O36         O  0.21607224  0.74599295  0.77267169    -0.89000
C37         C  0.24025663  0.87446311  0.70931014     0.85000
O38         O  0.25811018  0.74931802  0.71161929    -0.67200
O39         O  0.22389178  0.82648641  0.58493750    -0.86400
C40         C  0.28138554  0.78361211  0.71526252     0.85800
C41         C  0.21507120  0.77258762  0.78597684     1.07400
H42         H  0.25998238  0.82293770  0.65400688     0.39200
O43         O  0.23348181  0.81190438  0.65867014    -1.09100
O44         O  0.16032572  0.75493850  0.63390907    -0.65800
Ni45       Ni  0.20846711  0.76206623  0.64429980     1.26300
O46         O  0.27115283  0.80636772  0.71835656    -0.66000
O47         O  0.22195027  0.77393560  0.59177293    -0.78300
C48         C  0.18659291  0.68691151  0.64813217     0.85200
O49         O  0.18546971  0.71183627  0.63060828    -0.65500
Ni50       Ni  0.22011922  0.84294435  0.63478126     1.27400
Ni51       Ni  0.22397677  0.80358614  0.71162645     1.26100
H52         H  0.16920452  0.74330058  0.70148102     0.39700
O53         O  0.49924669  0.78481845  0.33907131    -0.80200
O54         O  0.61955191  0.74433006  0.38001465    -0.64900
O55         O  0.56809397  0.79233708  0.35618865    -1.11500
C56         C  0.59042002  0.77234521  0.22876498     1.06600
O57         O  0.66416506  0.77684695  0.33784708    -0.78100
O58         O  0.66082986  0.82675814  0.29432482    -0.65700
Ni59       Ni  0.52107194  0.77483717  0.38141161     1.34900
C60         C  0.64611972  0.84564903  0.29360400     0.85400
O61         O  0.59523552  0.77863797  0.42232464    -0.78700
O62         O  0.53659093  0.76452442  0.42876469    -0.89000
C63         C  0.65074507  0.75365817  0.36488627     0.85000
O64         O  0.49995086  0.72580010  0.36441501    -0.67200
O65         O  0.61872199  0.77345760  0.24256427    -0.86400
C66         C  0.51314472  0.70631367  0.37205401     0.85800
C67         C  0.56720984  0.77104586  0.44289333     1.07400
H68         H  0.57542482  0.73359934  0.31145567     0.39200
O69         O  0.59208316  0.75953054  0.31620093    -1.09100
O70         O  0.61083489  0.83145810  0.29561189    -0.65800
Ni71       Ni  0.56644340  0.78296755  0.30242302     1.26300
O72         O  0.54809900  0.72015562  0.37735935    -0.66000
O73         O  0.56597523  0.77309462  0.24924553    -0.78300
C74         C  0.50931476  0.79915742  0.30616194     0.85200
O75         O  0.53873743  0.80471729  0.28983743    -0.65500
Ni76       Ni  0.63895886  0.77498277  0.29157627     1.27400
Ni77       Ni  0.59353747  0.76826160  0.36943162     1.26100
H78         H  0.58448317  0.81823583  0.36123076     0.39700
O79         O  0.50112490  0.78684703  0.84182442    -0.80200
O80         O  0.61628165  0.74308442  0.87807580    -0.64900
O81         O  0.57244441  0.79853425  0.85668488    -1.11500
C82         C  0.58763928  0.77495796  0.72905962     1.06600
O83         O  0.66187874  0.77591891  0.83642951    -0.78100
O84         O  0.66081393  0.82915770  0.79517511    -0.65700
Ni85       Ni  0.53116903  0.79241184  0.88552537     1.34900
C86         C  0.64663053  0.84849177  0.79295036     0.85400
O87         O  0.59504592  0.77822241  0.92252762    -0.78700
O88         O  0.55657605  0.79802028  0.93250382    -0.89000
C89         C  0.64763052  0.75232328  0.86323591     0.85000
O90         O  0.50470039  0.74053076  0.89084637    -0.67200
O91         O  0.61699241  0.77737997  0.74195901    -0.86400
C92         C  0.51312218  0.71674276  0.88651916     0.85800
C93         C  0.57868661  0.78876218  0.94432100     1.07400
H94         H  0.57392901  0.73680318  0.81034642     0.39200
O95         O  0.59123288  0.76253894  0.81557239    -1.09100
O96         O  0.61156405  0.83496634  0.79385174    -0.65800
Ni97       Ni  0.56701026  0.78760838  0.80330703     1.26300
O98         O  0.54536813  0.72454529  0.87543158    -0.66000
O99         O  0.56369403  0.77610898  0.75017922    -0.78300
C100        C  0.51054707  0.80318617  0.80979395     0.85200
O101        O  0.54064999  0.81114381  0.79309518    -0.65500
Ni102      Ni  0.63742620  0.77709538  0.79054421     1.27400
Ni103      Ni  0.59334937  0.77021413  0.86903277     1.26100
H104        H  0.59232044  0.82390746  0.86006234     0.39700
O105        O  0.21553433  0.49184632  0.99001144    -0.80200
O106        O  0.25465254  0.37876901  0.95476058    -0.64900
O107        O  0.19792938  0.42072198  0.97545059    -1.11500
C108        C  0.22318026  0.40796002  0.10286887     1.06600
O109        O  0.22094037  0.33378487  0.99582969    -0.78100
O110        O  0.16724389  0.33519923  0.03899381    -0.65700
Ni111      Ni  0.20493126  0.46099776  0.94631412     1.34900
C112        C  0.14775125  0.34928746  0.04264435     0.85400
O113        O  0.21935992  0.39965365  0.90947572    -0.78700
O114        O  0.19500277  0.43386255  0.90011443    -0.89000
C115        C  0.24470900  0.34777412  0.96855453     0.85000
O116        O  0.25746371  0.48514653  0.93668902    -0.67200
O117        O  0.22128180  0.37928312  0.09052019    -0.86400
C118        C  0.28175963  0.47751755  0.94409005     0.85800
C119        C  0.20640874  0.41385051  0.88785629     1.07400
H120        H  0.26116671  0.41974814  0.02191053     0.39200
O121        O  0.23482088  0.40281526  0.01672059    -1.09100
O122        O  0.16181236  0.38353992  0.04001733    -0.65800
Ni123      Ni  0.20963853  0.42686690  0.02851778     1.26300
O124        O  0.27376116  0.44713335  0.95821216    -0.66000
O125        O  0.22197586  0.43105366  0.08134698    -0.78300
C126        C  0.19708670  0.48348827  0.02101423     0.85200
O127        O  0.18589795  0.45321697  0.03759703    -0.65500
Ni128      Ni  0.22062916  0.35824112  0.04200460     1.27400
Ni129      Ni  0.22691436  0.40063756  0.96336696     1.26100
H130        H  0.17188644  0.40132189  0.97244601     0.39700
O131        O  0.20322743  0.49017426  0.49169186    -0.80200
O132        O  0.24752181  0.37552690  0.44922151    -0.64900
O133        O  0.19873772  0.42466423  0.47723615    -1.11500
C134        C  0.22271557  0.40456453  0.60216852     1.06600
O135        O  0.21906704  0.33219553  0.49318036    -0.78100
O136        O  0.16473515  0.33670968  0.53095982    -0.65700
Ni137      Ni  0.21424778  0.46916265  0.45005314     1.34900
C138        C  0.14754125  0.35218978  0.54021060     0.85400
O139        O  0.20941132  0.39686359  0.40976344    -0.78700
O140        O  0.22531945  0.45427983  0.40288116    -0.89000
C141        C  0.24023551  0.34574702  0.46404839     0.85000
O142        O  0.26480916  0.49125733  0.46629596    -0.67200
O143        O  0.21488595  0.37432105  0.58777300    -0.86400
C144        C  0.28524928  0.47909698  0.45762484     0.85800
C145        C  0.21769600  0.42405935  0.38886746     1.07400
H146        H  0.26187340  0.41748694  0.51773863     0.39200
O147        O  0.23499582  0.40228645  0.51432972    -1.09100
O148        O  0.16434159  0.38693577  0.54270785    -0.65800
Ni149      Ni  0.21347983  0.42905664  0.53000676     1.26300
O150        O  0.27163646  0.44503168  0.45200580    -0.66000
O151        O  0.22845381  0.43152734  0.58186553    -0.78300
C152        C  0.19406746  0.48338696  0.52650413     0.85200
O153        O  0.19372273  0.45790475  0.54468397    -0.65500
Ni154      Ni  0.21692526  0.35597799  0.53870798     1.27400
Ni155      Ni  0.22302642  0.40008012  0.46194003     1.26100
H156        H  0.17191642  0.40815018  0.47470048     0.39700
O157        O  0.52440510  0.20165359  0.33395964    -0.80200
O158        O  0.41068405  0.24360669  0.37357406    -0.64900
O159        O  0.45314645  0.18724052  0.35243783    -1.11500
C160        C  0.43385590  0.20573378  0.22490294     1.06600
O161        O  0.36373478  0.20968219  0.33427790    -0.78100
O162        O  0.36272756  0.15537552  0.29388418    -0.65700
Ni163      Ni  0.49578862  0.19505880  0.37913016     1.34900
C164        C  0.37637588  0.13560835  0.29159377     0.85400
O165        O  0.43319670  0.20956324  0.41857150    -0.78700
O166        O  0.47136966  0.18921828  0.42698670    -0.89000
C167        C  0.37862515  0.23357671  0.36054740     0.85000
O168        O  0.52194423  0.24688368  0.38289867    -0.67200
O169        O  0.40544071  0.20492354  0.23850532    -0.86400
C170        C  0.51366423  0.27050201  0.37683857     0.85800
C171        C  0.44935539  0.19833513  0.43975412     1.07400
H172        H  0.45064353  0.24743278  0.30440511     0.39200
O173        O  0.43331431  0.22194996  0.31094295    -1.09100
O174        O  0.41141983  0.14868858  0.29180961    -0.65800
Ni175      Ni  0.45672805  0.19610389  0.29879128     1.26300
O176        O  0.48087755  0.26216229  0.36787634    -0.66000
O177        O  0.45856219  0.20576863  0.24552840    -0.78300
C178        C  0.51425178  0.18285084  0.30367835     0.85200
O179        O  0.48271801  0.17202273  0.28877026    -0.65500
Ni180      Ni  0.38665292  0.20722499  0.28760348     1.27400
Ni181      Ni  0.43299362  0.21610452  0.36467169     1.26100
H182        H  0.43350086  0.16199593  0.35728697     0.39700
O183        O  0.52207351  0.19687254  0.83094722    -0.80200
O184        O  0.41123590  0.24290848  0.87564348    -0.64900
O185        O  0.45217976  0.18579812  0.85100521    -1.11500
C186        C  0.42907274  0.20585600  0.72518181     1.06600
O187        O  0.36254750  0.20806404  0.83859867    -0.78100
O188        O  0.36014033  0.15495413  0.79581732    -0.65700
Ni189      Ni  0.49487284  0.19228614  0.87661503     1.34900
C190        C  0.37349883  0.13506640  0.79255293     0.85400
O191        O  0.43475235  0.20887137  0.91867010    -0.78700
O192        O  0.47244696  0.18792363  0.92534472    -0.89000
C193        C  0.37815716  0.23174864  0.86493797     0.85000
O194        O  0.52210484  0.24422080  0.87910068    -0.67200
O195        O  0.40096558  0.20488322  0.73998246    -0.86400
C196        C  0.51457323  0.26852195  0.87386081     0.85800
C197        C  0.45124086  0.19755431  0.93908475     1.07400
H198        H  0.44850674  0.24651725  0.80498309     0.39200
O199        O  0.43135925  0.22103012  0.81162448    -1.09100
O200        O  0.40850807  0.14789676  0.79119882    -0.65800
Ni201      Ni  0.45423293  0.19524910  0.79742088     1.26300
O202        O  0.48159181  0.26093666  0.86687520    -0.66000
O203        O  0.45425029  0.20547557  0.74456820    -0.78300
C204        C  0.51142184  0.18061210  0.79917706     0.85200
O205        O  0.48014032  0.17154751  0.78472191    -0.65500
Ni206      Ni  0.38392178  0.20664514  0.79037548     1.27400
Ni207      Ni  0.43299217  0.21522217  0.86502465     1.26100
H208        H  0.43229845  0.16064963  0.85586698     0.39700
O209        O  0.82685964  0.29615355  0.18009482    -0.80200
O210        O  0.77393718  0.13169103  0.22125382    -0.64900
O211        O  0.82838222  0.23375320  0.19585479    -1.11500
C212        C  0.80752496  0.19095417  0.06947056     1.06600
O213        O  0.80415994  0.11839047  0.17954351    -0.78100
O214        O  0.85995067  0.17825438  0.14136873    -0.65700
Ni215      Ni  0.81325433  0.26278211  0.22168831     1.34900
C216        C  0.87963456  0.21251277  0.13497746     0.85400
O217        O  0.81181563  0.19233228  0.26257263    -0.78700
O218        O  0.79869291  0.23508244  0.26867269    -0.89000
C219        C  0.78244430  0.10986618  0.20822397     0.85000
O220        O  0.76386170  0.23374689  0.20236631    -0.67200
O221        O  0.81139642  0.16605370  0.08358454    -0.86400
C222        C  0.74148506  0.19974170  0.20860267     0.85800
C223        C  0.80421894  0.21152753  0.28300870     1.07400
H224        H  0.76544958  0.16269417  0.15188221     0.39200
O225        O  0.79193636  0.17428972  0.15679409    -1.09100
O226        O  0.86563185  0.23211687  0.13298915    -0.65800
Ni227      Ni  0.81682737  0.22465148  0.14234113     1.26300
O228        O  0.75298431  0.17854535  0.21602250    -0.66000
O229        O  0.80436227  0.21335563  0.08989873    -0.78300
C230        C  0.83776551  0.29988984  0.14582577     0.85200
O231        O  0.83975503  0.27529124  0.12853602    -0.65500
Ni232      Ni  0.80763064  0.14481059  0.13322805     1.27400
Ni233      Ni  0.80101827  0.18283638  0.20974481     1.26100
H234        H  0.85482827  0.24439630  0.20012595     0.39700
O235        O  0.83864111  0.30183913  0.67883241    -0.80200
O236        O  0.77231012  0.13404658  0.72207933    -0.64900
O237        O  0.83162741  0.23521282  0.69362305    -1.11500
C238        C  0.80018833  0.18735129  0.56976000     1.06600
O239        O  0.80309920  0.12027421  0.68175400    -0.78100
O240        O  0.85825482  0.17813595  0.63950005    -0.65700
Ni241      Ni  0.82364430  0.26870808  0.72107324     1.34900
C242        C  0.87673682  0.21156839  0.62924747     0.85400
O243        O  0.81474863  0.19457794  0.76185195    -0.78700
O244        O  0.81020839  0.24272132  0.76898573    -0.89000
C245        C  0.78066874  0.11184585  0.70988476     0.85000
O246        O  0.77251442  0.24308184  0.70594054    -0.67200
O247        O  0.80592927  0.16364114  0.58401687    -0.86400
C248        C  0.74774431  0.20924255  0.71116082     0.85800
C249        C  0.81250573  0.21698005  0.78280687     1.07400
H250        H  0.76360005  0.16333085  0.65351328     0.39200
O251        O  0.79026397  0.17489574  0.65728366    -1.09100
O252        O  0.86181761  0.23019224  0.62679817    -0.65800
Ni253      Ni  0.81510893  0.22446091  0.64110495     1.26300
O254        O  0.75625813  0.18537320  0.71688787    -0.66000
O255        O  0.79816419  0.21065309  0.58999122    -0.78300
C256        C  0.84487856  0.30263357  0.64340874     0.85200
O257        O  0.83858599  0.27459673  0.62521571    -0.65500
Ni258      Ni  0.80497031  0.14451681  0.63428481     1.27400
Ni259      Ni  0.80175745  0.18482815  0.70946520     1.26100
H260        H  0.85783905  0.24362265  0.69546599     0.39700
O261        O  0.83216227  0.49777600  0.97455254    -0.80200
O262        O  0.77607426  0.60310002  0.93968575    -0.64900
O263        O  0.83704551  0.56443673  0.96007504    -1.11500
C264        C  0.80470902  0.57100173  0.08810656     1.06600
O265        O  0.80702497  0.64613087  0.98257657    -0.78100
O266        O  0.85859526  0.64669800  0.03055452    -0.65700
Ni267      Ni  0.83078148  0.52399953  0.93155755     1.34900
C268        C  0.88103002  0.63575980  0.03126438     0.85400
O269        O  0.81675103  0.58807754  0.89441779    -0.78700
O270        O  0.82950388  0.54505372  0.88443385    -0.89000
C271        C  0.78361092  0.63269227  0.95534956     0.85000
O272        O  0.77760504  0.49508096  0.93471039    -0.67200
O273        O  0.80159586  0.59699262  0.07606257    -0.86400
C274        C  0.75282526  0.50293862  0.93609334     0.85800
C275        C  0.82413882  0.56946244  0.87246180     1.07400
H276        H  0.76999643  0.55879618  0.00547772     0.39200
O277        O  0.79606989  0.57774423  0.00127722    -1.09100
O278        O  0.87082470  0.60291142  0.02433201    -0.65800
Ni279      Ni  0.82492293  0.55742998  0.01346865     1.26300
O280        O  0.76052203  0.53553852  0.93959587    -0.66000
O281        O  0.81186964  0.55186915  0.06647797    -0.78300
C282        C  0.84679184  0.50664327  0.00727537     0.85200
O283        O  0.85269815  0.53521165  0.02388277    -0.65500
Ni284      Ni  0.80477614  0.61989479  0.02819254     1.27400
Ni285      Ni  0.80604843  0.58299617  0.94796453     1.26100
H286        H  0.86289133  0.58432153  0.95675919     0.39700
O287        O  0.83960331  0.49887403  0.47777155    -0.80200
O288        O  0.77868769  0.60174456  0.43509008    -0.64900
O289        O  0.83641977  0.56063112  0.46141567    -1.11500
C290        C  0.81115377  0.57952470  0.58698357     1.06600
O291        O  0.81054666  0.64704259  0.47547527    -0.78100
O292        O  0.86474904  0.64835574  0.51806782    -0.65700
Ni293      Ni  0.82494603  0.51671234  0.43576644     1.34900
C294        C  0.88449647  0.63505058  0.52472866     0.85400
O295        O  0.81900142  0.58320963  0.39374212    -0.78700
O296        O  0.81105740  0.52850574  0.38851384    -0.89000
C297        C  0.78641836  0.63200332  0.44913349     0.85000
O298        O  0.77424415  0.49096473  0.45304973    -0.67200
O299        O  0.81299245  0.60735020  0.57237608    -0.86400
C300        C  0.75073666  0.49997128  0.44652885     0.85800
C301        C  0.81424283  0.55674975  0.37372046     1.07400
H302        H  0.77095942  0.56223347  0.50435847     0.39200
O303        O  0.79745717  0.57918132  0.49960474    -1.09100
O304        O  0.87082404  0.60074569  0.52506057    -0.65800
Ni305      Ni  0.82314833  0.55640873  0.51481204     1.26300
O306        O  0.76082296  0.53316878  0.44020151    -0.66000
O307        O  0.80953648  0.55412818  0.56716514    -0.78300
C308        C  0.84942979  0.50725289  0.51217444     0.85200
O309        O  0.84734467  0.53169986  0.52951122    -0.65500
Ni310      Ni  0.81154392  0.62486499  0.52265126     1.27400
Ni311      Ni  0.80744372  0.58077687  0.44666622     1.26100
H312        H  0.86274103  0.57900478  0.45767721     0.39700
C313        C  0.82949700  0.60901295  0.69011447    -0.27600
C314        C  0.81848408  0.57611375  0.70874909     0.06100
C315        C  0.80463971  0.54398540  0.68718067     0.25700
C316        C  0.80198472  0.54504211  0.64760848    -0.12000
C317        C  0.81271982  0.57799823  0.62895007    -0.26000
C318        C  0.82682195  0.61013907  0.65073851     0.36500
C319        C  0.82138525  0.57585382  0.75065392     0.06100
F320        F  0.79285813  0.51143164  0.70437377    -0.19800
H321        H  0.79127619  0.52000417  0.63160552     0.15900
F322        F  0.83918214  0.64306193  0.63408327    -0.23500
H323        H  0.84075089  0.63413175  0.70613037     0.17700
C324        C  0.83948011  0.56051399  0.76820232     0.25700
C325        C  0.84141012  0.55993344  0.80772290    -0.12000
C326        C  0.82554563  0.57475763  0.83070839    -0.26000
C327        C  0.80860096  0.59133508  0.81305025     0.36600
C328        C  0.80661209  0.59181865  0.77336967    -0.27700
F329        F  0.85574481  0.54648518  0.74719397    -0.19800
H330        H  0.85507631  0.54737785  0.82036032     0.15900
F331        F  0.79264470  0.60574161  0.83392279    -0.23500
H332        H  0.79271850  0.60397193  0.76031931     0.17700
C333        C  0.78676450  0.57615483  0.19286118    -0.27600
C334        C  0.80536786  0.56105109  0.20966928     0.06100
C335        C  0.82093419  0.54627544  0.18622917     0.25700
C336        C  0.81903647  0.54792295  0.14662070    -0.12000
C337        C  0.80167441  0.56437912  0.12971349    -0.26000
C338        C  0.78476267  0.57775819  0.15336734     0.36500
C339        C  0.80789904  0.56037861  0.25162385     0.06100
F340        F  0.83935853  0.53165992  0.20159075    -0.19800
H341        H  0.83249779  0.53763287  0.12921394     0.15900
F342        F  0.76645238  0.59266660  0.13843195    -0.23500
H343        H  0.77374557  0.58679522  0.21043433     0.17700
C344        C  0.82155016  0.59240987  0.27327031     0.25700
C345        C  0.82327884  0.59112303  0.31295038    -0.12000
C346        C  0.81153118  0.55794065  0.33173077    -0.26000
C347        C  0.79750962  0.52585828  0.30983743     0.36600
C348        C  0.79584475  0.52724122  0.27030765    -0.27700
F349        F  0.83401018  0.62508357  0.25599381    -0.19800
H350        H  0.83427485  0.61621496  0.32892685     0.15900
F351        F  0.78472170  0.49285173  0.32648465    -0.23500
H352        H  0.78458015  0.50216828  0.25421377     0.17700
C353        C  0.88607187  0.44607440  0.53189162    -0.27600
C354        C  0.87333611  0.43437785  0.56932177     0.06100
C355        C  0.85761555  0.45118032  0.58936162     0.25700
C356        C  0.85234858  0.47687727  0.57137077    -0.12000
C357        C  0.86209040  0.48605012  0.53297071    -0.26000
C358        C  0.88030772  0.47140085  0.51376714     0.36500
C359        C  0.87303402  0.40254069  0.58617763     0.06100
F360        F  0.84463703  0.44082453  0.62546807    -0.19800
H361        H  0.83835093  0.48778903  0.58682294     0.15900
F362        F  0.89180691  0.48095023  0.47714244    -0.23500
H363        H  0.89946192  0.43470596  0.51617618     0.17700
C364        C  0.85946519  0.36989470  0.56541834     0.25700
C365        C  0.85259662  0.33799385  0.58358195    -0.12000
C366        C  0.85875793  0.33779619  0.62279456    -0.26000
C367        C  0.87527709  0.37120818  0.64273841     0.36600
C368        C  0.88254925  0.40311171  0.62449666    -0.27700
F369        F  0.85012258  0.36788697  0.52823369    -0.19800
H370        H  0.84029787  0.31288848  0.56736094     0.15900
F371        F  0.88340613  0.37295286  0.68028050    -0.23500
H372        H  0.89438367  0.42808661  0.64085423     0.17700
C373        C  0.87617733  0.46156822  0.08002767    -0.27600
C374        C  0.86122409  0.42674118  0.06363049     0.06100
C375        C  0.84401021  0.41972689  0.02793096     0.25700
C376        C  0.84115208  0.44652923  0.00953439    -0.12000
C377        C  0.85455961  0.48086885  0.02641537    -0.26000
C378        C  0.87298210  0.48849902  0.06164662     0.36500
C379        C  0.85957136  0.39653550  0.08547169     0.06100
F380        F  0.82739527  0.38603500  0.01190056    -0.19800
H381        H  0.82673248  0.43951604  0.98251967     0.15900
F382        F  0.88721767  0.52149212  0.07867381    -0.23500
H383        H  0.88957329  0.46758760  0.10756816     0.17700
C384        C  0.86899792  0.37297780  0.06887010     0.25700
C385        C  0.86266329  0.34201248  0.08870962    -0.12000
C386        C  0.84716735  0.33411700  0.12559278    -0.26000
C387        C  0.83885850  0.35854615  0.14242120     0.36600
C388        C  0.84511157  0.38923567  0.12256448    -0.27700
F389        F  0.88416785  0.37979214  0.03341079    -0.19800
H390        H  0.86948296  0.32399054  0.07498995     0.15900
F391        F  0.82316974  0.35224231  0.17760078    -0.23500
H392        H  0.83712272  0.40660008  0.13576146     0.17700
C393        C  0.79897159  0.17606578  0.88191478    -0.27600
C394        C  0.81032276  0.20668181  0.90513114     0.06100
C395        C  0.82310560  0.24074078  0.88773282     0.25700
C396        C  0.82358715  0.24373185  0.84807471    -0.12000
C397        C  0.81201323  0.21307802  0.82481766    -0.26000
C398        C  0.79983921  0.17912184  0.84221563     0.36500
C399        C  0.80936705  0.20283194  0.94727530     0.06100
F400        F  0.83620288  0.27139802  0.90897094    -0.19800
H401        H  0.83361348  0.27031321  0.83549755     0.15900
F402        F  0.78780241  0.14863169  0.82099848    -0.23500
H403        H  0.78894321  0.14953110  0.89461411     0.17700
C404        C  0.79276221  0.21661542  0.97069926     0.25700
C405        C  0.79220741  0.21265638  0.01029165    -0.12000
C406        C  0.80765412  0.19442958  0.02738151    -0.26000
C407        C  0.82402973  0.18043757  0.00382996     0.36600
C408        C  0.82481403  0.18465995  0.96433001    -0.27700
F409        F  0.77611221  0.23300579  0.95532108    -0.19800
H410        H  0.77923003  0.22351092  0.02758827     0.15900
F411        F  0.84027019  0.16351662  0.01889143    -0.23500
H412        H  0.83800901  0.17406344  0.94697093     0.17700
C413        C  0.77752737  0.21058839  0.38655120    -0.27600
C414        C  0.79740224  0.19744537  0.40495435     0.06100
C415        C  0.81862001  0.18799902  0.38259535     0.25700
C416        C  0.82003893  0.19195706  0.34302919    -0.12000
C417        C  0.80105618  0.20607733  0.32482323    -0.26000
C418        C  0.77959173  0.21528312  0.34705015     0.36500
C419        C  0.79633431  0.19414557  0.44726440     0.06100
F420        F  0.83918373  0.17618010  0.39895794    -0.19800
H421        H  0.83692048  0.18486541  0.32667016     0.15900
F422        F  0.76006180  0.22828189  0.33066963    -0.23500
H423        H  0.76016009  0.21714887  0.40277011     0.17700
C424        C  0.79983571  0.22216461  0.47067951     0.25700
C425        C  0.79995734  0.21921687  0.51030573    -0.12000
C426        C  0.79720396  0.18863446  0.52767538    -0.26000
C427        C  0.79335363  0.16043440  0.50422349     0.36600
C428        C  0.79248539  0.16308616  0.46463217    -0.27700
F429        F  0.80471446  0.25319949  0.45537946    -0.19800
H430        H  0.80335558  0.24156499  0.52738338     0.15900
F431        F  0.79051170  0.13021630  0.51932070    -0.23500
H432        H  0.78883323  0.14067770  0.44749485     0.17700
C433        C  0.57535586  0.18106410  0.72290748    -0.27600
C434        C  0.59829944  0.17372206  0.74485600     0.06100
C435        C  0.58967743  0.16502949  0.78358654     0.25700
C436        C  0.55991810  0.16532244  0.80025771    -0.12000
C437        C  0.53785336  0.17401895  0.77882418    -0.26000
C438        C  0.54505879  0.18085274  0.73962722     0.36500
C439        C  0.63385438  0.17973750  0.72912947     0.06100
F440        F  0.61180924  0.15904382  0.80609053    -0.19800
H441        H  0.55500301  0.16013998  0.83053216     0.15900
F442        F  0.52470964  0.18996702  0.71819175    -0.23500
H443        H  0.58172362  0.18817046  0.69310456     0.17700
C444        C  0.64327539  0.15344802  0.73372155     0.25700
C445        C  0.67977521  0.16244047  0.72575758    -0.12000
C446        C  0.70762947  0.19782860  0.71306976    -0.26000
C447        C  0.69715383  0.22314462  0.70573694     0.36600
C448        C  0.66071094  0.21406145  0.71371280    -0.27700
F449        F  0.61750440  0.11946561  0.74719347    -0.19800
H450        H  0.68659840  0.14213338  0.73118925     0.15900
F451        F  0.72242972  0.25737649  0.69247777    -0.23500
H452        H  0.65408976  0.23472551  0.70987056     0.17700
C453        C  0.57377254  0.36972339  0.89953977    -0.27600
C454        C  0.61001132  0.37631347  0.89618275     0.06100
C455        C  0.61429700  0.34906943  0.88039203     0.25700
C456        C  0.58297187  0.31502296  0.87104826    -0.12000
C457        C  0.54651164  0.30715032  0.87706286    -0.26000
C458        C  0.54210223  0.33535627  0.88993294     0.36500
C459        C  0.64341365  0.41013799  0.91131880     0.06100
F460        F  0.64893385  0.35502452  0.87501727    -0.19800
H461        H  0.58732891  0.29421660  0.86027112     0.15900
F462        F  0.50739932  0.32908736  0.89558580    -0.23500
H463        H  0.56992185  0.39050871  0.91134783     0.17700
C464        C  0.65355713  0.44524055  0.89907515     0.25700
C465        C  0.68837937  0.47613077  0.90941927    -0.12000
C466        C  0.71337927  0.47225303  0.93193078    -0.26000
C467        C  0.70181352  0.43746681  0.94649981     0.36600
C468        C  0.66716350  0.40686090  0.93636883    -0.27700
F469        F  0.63107655  0.44937658  0.87512398    -0.19800
H470        H  0.69675961  0.50269374  0.89790153     0.15900
F471        F  0.72455949  0.43287134  0.96962583    -0.23500
H472        H  0.65940474  0.38017751  0.94698868     0.17700
C473        C  0.65093580  0.19698962  0.20518985    -0.27600
C474        C  0.62968848  0.17012637  0.23275652     0.06100
C475        C  0.64281089  0.14884856  0.24711397     0.25700
C476        C  0.67803334  0.15629697  0.23613561    -0.12000
C477        C  0.70098054  0.18557287  0.21131548    -0.26000
C478        C  0.68640982  0.20488043  0.19461487     0.36500
C479        C  0.59775540  0.16914241  0.25111450     0.06100
F480        F  0.62265556  0.12258376  0.27374191    -0.19800
H481        H  0.68852815  0.14107538  0.24947607     0.15900
F482        F  0.70732867  0.23289535  0.16988914    -0.23500
H483        H  0.64126026  0.21372247  0.19398007     0.17700
C484        C  0.60090693  0.17997419  0.28917710     0.25700
C485        C  0.57305692  0.18321010  0.30596949    -0.12000
C486        C  0.54131976  0.17577368  0.28530528    -0.26000
C487        C  0.53747892  0.16363916  0.24742060     0.36600
C488        C  0.56583369  0.16081561  0.23038043    -0.27700
F489        F  0.63196070  0.18928970  0.30961383    -0.19800
H490        H  0.57688130  0.19238969  0.33518656     0.15900
F491        F  0.50715966  0.15571161  0.22648546    -0.23500
H492        H  0.56319438  0.15265623  0.20088150     0.17700
C493        C  0.56963154  0.36864950  0.41168968    -0.27600
C494        C  0.60628288  0.37787086  0.40378293     0.06100
C495        C  0.61153006  0.35382826  0.38210370     0.25700
C496        C  0.58085048  0.31986913  0.37129441    -0.12000
C497        C  0.54425512  0.30928705  0.38147717    -0.26000
C498        C  0.53863678  0.33449336  0.40049666     0.36500
C499        C  0.63938878  0.41036497  0.42094985     0.06100
F500        F  0.64660909  0.36264196  0.37279734    -0.19800
H501        H  0.58581028  0.30110511  0.35620962     0.15900
F502        F  0.50360272  0.32499191  0.41094203    -0.23500
H503        H  0.56513934  0.38696016  0.42829264     0.17700
C504        C  0.65058779  0.44617828  0.41066856     0.25700
C505        C  0.68596250  0.47589349  0.42157642    -0.12000
C506        C  0.71052438  0.47018911  0.44284464    -0.26000
C507        C  0.69756139  0.43448639  0.45582517     0.36600
C508        C  0.66242706  0.40503695  0.44488422    -0.27700
F509        F  0.62864156  0.45212241  0.38783391    -0.19800
H510        H  0.69503858  0.50302382  0.41127063     0.15900
F511        F  0.71947993  0.42761333  0.47758534    -0.23500
H512        H  0.65385279  0.37759495  0.45362713     0.17700
C513        C  0.40251499  0.18896838  0.62115500    -0.27600
C514        C  0.43776075  0.20492019  0.60339297     0.06100
C515        C  0.47027030  0.22300305  0.62600707     0.25700
C516        C  0.46727022  0.22316664  0.66558230    -0.12000
C517        C  0.43198626  0.20663532  0.68328819    -0.26000
C518        C  0.39955705  0.19011018  0.66059964     0.36500
C519        C  0.44006722  0.20224426  0.56147688     0.06100
F520        F  0.50497999  0.24128409  0.60992834    -0.19800
H521        H  0.49263893  0.23670360  0.68240813     0.15900
F522        F  0.36484684  0.17380966  0.67651995    -0.23500
H523        H  0.37705095  0.17488615  0.60450751     0.17700
C524        C  0.46392962  0.19268413  0.54505194     0.25700
C525        C  0.46594259  0.19054007  0.50562526    -0.12000
C526        C  0.44389290  0.19732614  0.48155402    -0.26000
C527        C  0.41891876  0.20549763  0.49807635     0.36600
C528        C  0.41728582  0.20810369  0.53755980    -0.27700
F529        F  0.48480785  0.18461589  0.56701347    -0.19800
H530        H  0.48525638  0.18391584  0.49398755     0.15900
F531        F  0.39626204  0.21132594  0.47627215    -0.30700
H532        H  0.39844780  0.21522550  0.54945297     0.17700
C533        C  0.40911896  0.19298531  0.12031868    -0.27600
C534        C  0.44327767  0.20272961  0.10320858     0.06100
C535        C  0.47482704  0.21446521  0.12640892     0.25700
C536        C  0.47171406  0.21548944  0.16595481    -0.12000
C537        C  0.43740227  0.20561761  0.18301164    -0.26000
C538        C  0.40612424  0.19460415  0.15959846     0.36500
C539        C  0.44528052  0.20092251  0.06120883     0.06100
F540        F  0.50887092  0.22588477  0.11094859    -0.19800
H541        H  0.49630451  0.22439397  0.18320340     0.15900
F542        F  0.37219332  0.18440628  0.17450805    -0.23500
H543        H  0.38435290  0.18358285  0.10318623     0.17700
C544        C  0.46252859  0.18458166  0.04367163     0.25700
C545        C  0.46360804  0.18289917  0.00406172    -0.12000
C546        C  0.44696464  0.19682429  0.98103978    -0.26000
C547        C  0.42861358  0.21207778  0.99874968     0.36600
C548        C  0.42816656  0.21433332  0.03830201    -0.27700
F549        F  0.47746214  0.16931654  0.06468953    -0.19800
H550        H  0.47762278  0.17065193  0.99144279     0.15900
F551        F  0.41161882  0.22548523  0.97807560    -0.23500
H552        H  0.41458689  0.22694804  0.05109778     0.17700
C553        C  0.04988027  0.27069676  0.56706960    -0.27600
C554        C  0.03171718  0.28845203  0.57797966     0.06100
C555        C  0.05176084  0.32694196  0.57582670     0.25700
C556        C  0.08858671  0.34698887  0.56208965    -0.12000
C557        C  0.10696540  0.32946104  0.55088512    -0.26000
C558        C  0.08710535  0.29086245  0.55371072     0.36500
C559        C  0.99173831  0.26710839  0.59064809     0.06100
F560        F  0.03611681  0.34541791  0.58811315    -0.19800
H561        H  0.10302237  0.37657217  0.56114637     0.15900
F562        F  0.10367096  0.27251666  0.54426839    -0.23500
H563        H  0.03509715  0.24110499  0.56859795     0.17700
C564        C  0.96625517  0.27476035  0.57494822     0.25700
C565        C  0.92941798  0.25672475  0.58824407    -0.12000
C566        C  0.91644985  0.22979068  0.61681561    -0.26000
C567        C  0.94129629  0.22075280  0.63154658     0.36600
C568        C  0.97875313  0.23950045  0.61866347    -0.27700
F569        F  0.97673351  0.29925563  0.54603988    -0.19800
H570        H  0.91065666  0.26347690  0.57548809     0.15900
F571        F  0.92977886  0.19471879  0.65898554    -0.23500
H572        H  0.99779504  0.23294485  0.63103498     0.17700
C573        C  0.28937768  0.31684715  0.39587468    -0.27600
C574        C  0.29532887  0.29423218  0.41930182     0.06100
C575        C  0.28140397  0.28726648  0.45676349     0.25700
C576        C  0.26223926  0.30297697  0.47053596    -0.12000
C577        C  0.25709391  0.32641818  0.44747965    -0.26000
C578        C  0.27068639  0.33302358  0.40978571     0.36500
C579        C  0.31643918  0.27839308  0.40464610     0.06100
F580        F  0.28621061  0.26513997  0.48000661    -0.19800
H581        H  0.25236396  0.29761202  0.49972302     0.15900
F582        F  0.26606383  0.35516918  0.38637260    -0.23500
H583        H  0.29997499  0.32262613  0.36694374     0.17700
C584        C  0.30528092  0.25764120  0.37111719     0.25700
C585        C  0.32539452  0.24292536  0.35740906    -0.12000
C586        C  0.35736108  0.24888459  0.37651948    -0.26000
C587        C  0.36870782  0.27001162  0.41002055     0.36600
C588        C  0.34822090  0.28434714  0.42395992    -0.27700
F589        F  0.27452086  0.25108032  0.35191265    -0.19800
H590        H  0.31602045  0.22705664  0.33146719     0.15900
F591        F  0.39945009  0.27682105  0.42943906    -0.23500
H592        H  0.35749253  0.30060081  0.44966247     0.17700
C593        C  0.21459064  0.37871293  0.70666593    -0.27600
C594        C  0.21919329  0.40971349  0.72445924     0.06100
C595        C  0.22739890  0.44012668  0.70206549     0.25700
C596        C  0.22935850  0.43874895  0.66238938    -0.12000
C597        C  0.22351976  0.40717500  0.64435476    -0.26000
C598        C  0.21669999  0.37728182  0.66720333     0.36500
C599        C  0.21481959  0.40958625  0.76628854     0.06100
F600        F  0.23388963  0.47128854  0.71856604    -0.19800
H601        H  0.23503274  0.46228121  0.64580224     0.15900
F602        F  0.21131008  0.34616351  0.65166917    -0.23500
H603        H  0.20843172  0.35506958  0.72339172     0.17700
C604        C  0.19040404  0.41838681  0.78270994     0.25700
C605        C  0.18654281  0.41815076  0.82220473    -0.12000
C606        C  0.20673476  0.40892289  0.84616091    -0.26000
C607        C  0.23043698  0.39911705  0.82953776     0.36600
C608        C  0.23424932  0.39938831  0.79002544    -0.27700
F609        F  0.16989876  0.42677700  0.76055935    -0.19800
H610        H  0.16805955  0.42573463  0.83406153     0.15900
F611        F  0.25135488  0.39093499  0.85130051    -0.23500
H612        H  0.25313252  0.39241190  0.77791319     0.17700
C613        C  0.21008665  0.38738597  0.28870032    -0.27600
C614        C  0.22446760  0.41947574  0.26679321     0.06100
C615        C  0.23704915  0.45279045  0.28535102     0.25700
C616        C  0.23469823  0.45380568  0.32484324    -0.12000
C617        C  0.21999211  0.42173643  0.34693045    -0.26000
C618        C  0.20804156  0.38841550  0.32838919     0.36500
C619        C  0.22582957  0.41803817  0.22469233     0.06100
F620        F  0.25234002  0.48458888  0.26537887    -0.19800
H621        H  0.24472006  0.48001839  0.33813217     0.15900
F622        F  0.19394867  0.35676044  0.34835230    -0.23500
H623        H  0.19988122  0.36131368  0.27499676     0.17700
C624        C  0.24041948  0.39943613  0.20667192     0.25700
C625        C  0.24026510  0.39712490  0.16707122    -0.12000
C626        C  0.22597570  0.41360924  0.14453205    -0.26000
C627        C  0.21230385  0.43310360  0.16251310     0.36600
C628        C  0.21204488  0.43501732  0.20220568    -0.27700
F629        F  0.25522854  0.38381794  0.22730150    -0.19800
H630        H  0.25129030  0.38223882  0.15399108     0.15900
F631        F  0.19767610  0.44894088  0.14195507    -0.23500
H632        H  0.20021454  0.44910631  0.21544418     0.17700
C633        C  0.97033883  0.22845155  0.09464799    -0.27600
C634        C  0.99561960  0.26593980  0.10162134     0.06100
C635        C  0.98319776  0.28486485  0.12315203     0.25700
C636        C  0.94573766  0.26713740  0.13510614    -0.12000
C637        C  0.92020551  0.22996207  0.12693963    -0.26000
C638        C  0.93318093  0.21049839  0.10747202     0.36500
C639        C  0.03388689  0.28566698  0.08430809     0.06100
F640        F  0.00719513  0.32062214  0.13239161    -0.19800
H641        H  0.93654200  0.28260912  0.15037095     0.15900
F642        F  0.90936423  0.17465088  0.09849240    -0.23500
H643        H  0.97884547  0.21328039  0.07777167     0.17700
C644        C  0.05658077  0.27105845  0.08499634     0.25700
C645        C  0.09286067  0.29084958  0.06933134    -0.12000
C646        C  0.10733072  0.32562581  0.05291815    -0.26000
C647        C  0.08390991  0.33938047  0.05086006     0.36600
C648        C  0.04771015  0.31949829  0.06614152    -0.27700
F649        F  0.04446986  0.23849129  0.10232615    -0.19800
H650        H  0.11022475  0.27964223  0.07164766     0.15900
F651        F  0.09609554  0.37246802  0.03471106    -0.23500
H652        H  0.03043550  0.33080962  0.06390936     0.17700
C653        C  0.30699767  0.32619510  0.91211668    -0.27600
C654        C  0.29589012  0.29161025  0.92642853     0.06100
C655        C  0.26640253  0.27443270  0.95299671     0.25700
C656        C  0.24922271  0.29241034  0.96603295    -0.12000
C657        C  0.26086169  0.32757593  0.95237475    -0.26000
C658        C  0.28955888  0.34395842  0.92454915     0.36500
C659        C  0.31587808  0.27423336  0.91364663     0.06100
F660        F  0.25508426  0.24084841  0.96717998    -0.19800
H661        H  0.22720447  0.27900613  0.98727339     0.15900
F662        F  0.30151339  0.37749894  0.90977425    -0.23500
H663        H  0.32943041  0.33954679  0.89126425     0.17700
C664        C  0.29779514  0.24263234  0.89114162     0.25700
C665        C  0.31803147  0.22847957  0.87624411    -0.12000
C666        C  0.35664439  0.24551138  0.88363710    -0.26000
C667        C  0.37437726  0.27664876  0.90722006     0.36600
C668        C  0.35411173  0.29089999  0.92181499    -0.27700
F669        F  0.26101238  0.22648246  0.88216739    -0.19800
H670        H  0.30352702  0.20450990  0.85825576     0.15900
F671        F  0.41153549  0.29421958  0.91507594    -0.23500
H672        H  0.36841823  0.31542110  0.93905592     0.17700
C673        C  0.71505745  0.93992875  0.74696002    -0.27600
C674        C  0.71217615  0.96449661  0.77054085     0.06100
C675        C  0.68890962  0.95048448  0.80307845     0.25700
C676        C  0.66846083  0.91276189  0.81099989    -0.12000
C677        C  0.67145944  0.88847932  0.78722524    -0.26000
C678        C  0.69511241  0.90240192  0.75525567     0.36500
C679        C  0.73149135  0.00392668  0.75926677     0.06100
F680        F  0.68582454  0.97315055  0.82716039    -0.19800
H681        H  0.64996058  0.90239560  0.83554637     0.15900
F682        F  0.69693331  0.87936201  0.73060704    -0.23500
H683        H  0.73169801  0.94958604  0.72112322     0.17700
C684        C  0.76866741  0.02333324  0.74534683     0.25700
C685        C  0.78474931  0.05859912  0.72995267    -0.12000
C686        C  0.76457351  0.07572977  0.72898933    -0.26000
C687        C  0.72816236  0.05716991  0.74475303     0.36600
C688        C  0.71177476  0.02158624  0.75936166    -0.27700
F689        F  0.78944467  0.00812257  0.74644231    -0.19800
H690        H  0.81303312  0.07250883  0.71858839     0.15900
F691        F  0.70749358  0.07250849  0.74400044    -0.23500
H692        H  0.68297986  0.00726429  0.76928415     0.17700
C693        C  0.70720160  0.71121107  0.86475014    -0.27600
C694        C  0.70769018  0.70390157  0.90358984     0.06100
C695        C  0.68866134  0.71323163  0.92941008     0.25700
C696        C  0.66892415  0.72874880  0.91633378    -0.12000
C697        C  0.66860006  0.73612372  0.87744145    -0.26000
C698        C  0.68811946  0.72728690  0.85178683     0.36500
C699        C  0.72749490  0.68597800  0.91662867     0.06100
F700        F  0.68831127  0.70643880  0.96714495    -0.19800
H701        H  0.65413766  0.73529293  0.93664022     0.15900
F702        F  0.68765740  0.73299958  0.81388573    -0.23500
H703        H  0.72173213  0.70445990  0.84432745     0.17700
C704        C  0.71972151  0.65306483  0.90009022     0.25700
C705        C  0.73843433  0.63635336  0.91234684    -0.12000
C706        C  0.76542993  0.65198186  0.94138112    -0.26000
C707        C  0.77335626  0.68514792  0.95775385     0.36600
C708        C  0.75453720  0.70179403  0.94547126    -0.27700
F709        F  0.69315319  0.63642609  0.87277603    -0.19800
H710        H  0.73132496  0.61077361  0.89933437     0.15900
F711        F  0.79910728  0.70154434  0.98582748    -0.23500
H712        H  0.76129902  0.72730684  0.95838415     0.17700
C713        C  0.36633654  0.55092440  0.89059357    -0.27600
C714        C  0.39211945  0.56857132  0.92015924     0.06100
C715        C  0.38294697  0.55306595  0.95689426     0.25700
C716        C  0.34762792  0.52150394  0.96421810    -0.12000
C717        C  0.32098361  0.50564361  0.93517429    -0.26000
C718        C  0.33089144  0.51980585  0.89805217     0.36500
C719        C  0.42563045  0.60568998  0.91357152     0.06100
F720        F  0.40751961  0.56941987  0.98593961    -0.19800
H721        H  0.34027769  0.51081265  0.99296148     0.15900
F722        F  0.30567956  0.50431007  0.86936432    -0.23500
H723        H  0.37279461  0.56258782  0.86221186     0.17700
C724        C  0.45195257  0.61272755  0.88485991     0.25700
C725        C  0.48118111  0.64884310  0.87662342    -0.12000
C726        C  0.48381650  0.67834890  0.89621163    -0.26000
C727        C  0.45779474  0.67099241  0.92549268     0.36600
C728        C  0.42919958  0.63505454  0.93407128    -0.27700
F729        F  0.44911708  0.58472610  0.86464707    -0.19800
H730        H  0.50102533  0.65382411  0.85420588     0.15900
F731        F  0.45999846  0.69856582  0.94603381    -0.23500
H732        H  0.40896329  0.63019233  0.95602129     0.17700
C733        C  0.77072592  0.02234048  0.24781076    -0.27600
C734        C  0.73200622  0.00106341  0.25644700     0.06100
C735        C  0.71099579  0.01719063  0.25068340     0.25700
C736        C  0.72816273  0.05304438  0.23672079    -0.12000
C737        C  0.76625122  0.07340149  0.22653682    -0.26000
C738        C  0.78750502  0.05773318  0.23225657     0.36500
C739        C  0.71323409  0.96193288  0.26977019     0.06100
F740        F  0.67333389  0.99781757  0.25651485    -0.19800
H741        H  0.71110519  0.06434230  0.23211224     0.15900
F742        F  0.82458495  0.07677558  0.22324877    -0.23500
H743        H  0.78819240  0.01162355  0.25290646     0.17700
C744        C  0.72294966  0.93800662  0.25445940     0.25700
C745        C  0.70230545  0.90066957  0.26414046    -0.12000
C746        C  0.67097276  0.88596434  0.28842940    -0.26000
C747        C  0.66221529  0.90986581  0.30509913     0.36600
C748        C  0.68359239  0.94740240  0.29649379    -0.27700
F749        F  0.75088024  0.94991289  0.22833137    -0.19800
H750        H  0.70959460  0.88280851  0.25085608     0.15900
F751        F  0.63281171  0.89691453  0.32959903    -0.23500
H752        H  0.67633962  0.96500462  0.31037853     0.17700
C753        C  0.72768464  0.65715779  0.39044078    -0.27600
C754        C  0.73066307  0.68579543  0.41213210     0.06100
C755        C  0.75262990  0.69706208  0.44509053     0.25700
C756        C  0.77118306  0.67995235  0.45617298    -0.12000
C757        C  0.76789289  0.65080288  0.43499715    -0.26000
C758        C  0.74578095  0.63951211  0.40185315     0.36500
C759        C  0.71072406  0.70377044  0.40052819     0.06100
F760        F  0.75645689  0.72494138  0.46639795    -0.19800
H761        H  0.78772444  0.68926003  0.48190029     0.15900
F762        F  0.74152193  0.61148450  0.38049686    -0.23500
H763        H  0.71077864  0.64807124  0.36494061     0.17700
C764        C  0.71952412  0.72312025  0.36604695     0.25700
C765        C  0.70062461  0.74003349  0.35533557    -0.12000
C766        C  0.67217267  0.73765621  0.37851566    -0.26000
C767        C  0.66362409  0.71843948  0.41328975     0.36600
C768        C  0.68297403  0.70195266  0.42419989    -0.27700
F769        F  0.74675285  0.72603244  0.34293454    -0.19800
H770        H  0.70784314  0.75445832  0.32837692     0.15900
F771        F  0.63670265  0.71559569  0.43682784    -0.23500
H772        H  0.67594304  0.68726574  0.45099615     0.17700
C773        C  0.46281496  0.61460082  0.42204615    -0.27600
C774        C  0.42802740  0.59653597  0.40367582     0.06100
C775        C  0.42327019  0.61269751  0.37137114     0.25700
C776        C  0.45208173  0.64768058  0.35942520    -0.12000
C777        C  0.48632731  0.66668558  0.37898425    -0.26000
C778        C  0.49197798  0.64919569  0.40957103     0.36500
C779        C  0.39520148  0.56392555  0.42139436     0.06100
F780        F  0.38976669  0.59586964  0.35322311    -0.19800
H781        H  0.44704328  0.66063086  0.33594195     0.15900
F782        F  0.52438754  0.66687521  0.42966512    -0.23500
H783        H  0.46676370  0.60261229  0.44716969     0.17700
C784        C  0.37672680  0.52967617  0.40338281     0.25700
C785        C  0.34224477  0.50082079  0.41756667    -0.12000
C786        C  0.32539900  0.50604727  0.44936322    -0.26000
C787        C  0.34514093  0.53970807  0.46864575     0.36600
C788        C  0.37988554  0.56825490  0.45486673    -0.27700
F789        F  0.39122667  0.52469873  0.37122357    -0.19800
H790        H  0.32745716  0.47524128  0.40205597     0.15900
F791        F  0.33009908  0.54550517  0.49984675    -0.23500
H792        H  0.39388755  0.59451521  0.46912017     0.17700
C793        C  0.59779156  0.75804678  0.62522640    -0.27600
C794        C  0.57696780  0.77010560  0.60710581     0.06100
C795        C  0.55795124  0.78205877  0.62945589     0.25700
C796        C  0.56051534  0.78259296  0.66917277    -0.12000
C797        C  0.58220942  0.77141463  0.68728374    -0.26000
C798        C  0.60042618  0.75859482  0.66479063     0.36500
C799        C  0.57478001  0.76958314  0.56499904     0.06100
F800        F  0.53790697  0.79436625  0.61285498    -0.19800
H801        H  0.54638433  0.79273968  0.68568513     0.15900
F802        F  0.62058060  0.74618997  0.68094544    -0.23500
H803        H  0.61187259  0.74787697  0.60866175     0.17700
C804        C  0.60736780  0.78518769  0.54223720     0.25700
C805        C  0.60473965  0.78496522  0.50256570    -0.12000
C806        C  0.56965726  0.76927667  0.48483740    -0.26000
C807        C  0.53702037  0.75265829  0.50775011     0.36600
C808        C  0.53971814  0.75295185  0.54730709    -0.27700
F809        F  0.64183742  0.80166628  0.55832872    -0.19800
H810        H  0.63028901  0.79780743  0.48575932     0.15900
F811        F  0.50232859  0.73573529  0.49209798    -0.23500
H812        H  0.51422786  0.73988218  0.56422776     0.17700
C813        C  0.59114995  0.75930479  0.04134165    -0.27600
C814        C  0.58307411  0.77998811  0.06532562     0.06100
C815        C  0.57638372  0.80560921  0.04936726     0.25700
C816        C  0.57646808  0.80944613  0.00992581    -0.12000
C817        C  0.58364191  0.78811815  0.98578560    -0.26000
C818        C  0.59143392  0.76320937  0.00193534     0.36500
C819        C  0.58336016  0.77577031  0.10695991     0.06100
F820        F  0.57031604  0.82728024  0.07192339    -0.19800
H821        H  0.57053716  0.82887959  0.99822730     0.15900
F822        F  0.59743029  0.74124265  0.97976682    -0.23500
H823        H  0.59652969  0.73953398  0.05320555     0.17700
C824        C  0.55286615  0.76873129  0.12989061     0.25700
C825        C  0.55478825  0.76676246  0.16947563    -0.12000
C826        C  0.58702225  0.77149906  0.18673958    -0.26000
C827        C  0.61700155  0.77742256  0.16330358     0.36600
C828        C  0.61498024  0.77942938  0.12396655    -0.27700
F829        F  0.52119157  0.76349685  0.11398900    -0.19800
H830        H  0.53119040  0.76188504  0.18659188     0.15900
F831        F  0.64901862  0.78257725  0.17817874    -0.23500
H832        H  0.63872197  0.78486803  0.10670791     0.17700
C833        C  0.04518817  0.70172834  0.60962897    -0.27600
C834        C  0.03481645  0.72077532  0.58573464     0.06100
C835        C  0.06034215  0.75860950  0.58007972     0.25700
C836        C  0.09597025  0.77648646  0.59672203    -0.12000
C837        C  0.10703865  0.75703260  0.61908131    -0.26000
C838        C  0.08087054  0.71950116  0.62603011     0.36500
C839        C  0.99763401  0.70078305  0.56656793     0.06100
F840        F  0.05165299  0.77792586  0.55681935    -0.19800
H841        H  0.11561903  0.80526125  0.59046661     0.15900
F842        F  0.08987948  0.69981690  0.64830199    -0.23500
H843        H  0.02568293  0.67279993  0.61527374     0.17700
C844        C  0.98518858  0.66774332  0.54726368     0.25700
C845        C  0.94908653  0.64754414  0.53193696    -0.12000
C846        C  0.92460333  0.65987586  0.53514249    -0.26000
C847        C  0.93765615  0.69379245  0.55295877     0.36600
C848        C  0.97377024  0.71390537  0.56851586    -0.27700
F849        F  0.00786851  0.65479286  0.54341330    -0.19800
H850        H  0.93993117  0.62166442  0.51828356     0.15900
F851        F  0.91479829  0.70645185  0.55760860    -0.23500
H852        H  0.98254678  0.73909801  0.58346246     0.17700
C853        C  0.33187854  0.03324989  0.79843332    -0.27600
C854        C  0.30452396  0.02011915  0.76981608     0.06100
C855        C  0.29702117  0.04462881  0.75221245     0.25700
C856        C  0.31808052  0.08184679  0.76166080    -0.12000
C857        C  0.34731838  0.09523942  0.78814030    -0.26000
C858        C  0.35352275  0.07053993  0.80712874     0.36500
C859        C  0.28709453  0.98201168  0.75584850     0.06100
F860        F  0.27140504  0.03321910  0.72390820    -0.19800
H861        H  0.31315773  0.10059981  0.74649378     0.15900
F862        F  0.38109383  0.08261089  0.83342311    -0.23500
H863        H  0.33756751  0.01475685  0.81297735     0.17700
C864        C  0.30991254  0.96861509  0.74680589     0.25700
C865        C  0.29408765  0.93325963  0.73266341    -0.12000
C866        C  0.25542283  0.91086828  0.72617153    -0.26000
C867        C  0.23239435  0.92403062  0.73494868     0.36600
C868        C  0.24815070  0.95929023  0.75001147    -0.27700
F869        F  0.34779970  0.99028325  0.75007575    -0.19800
H870        H  0.31231174  0.92374214  0.72553489     0.15900
F871        F  0.19473753  0.90258701  0.72968428    -0.23500
H872        H  0.22998848  0.96887740  0.75706076     0.17700
C873        C  0.38318726  0.83714301  0.74700141    -0.27600
C874        C  0.39387162  0.81247239  0.73795144     0.06100
C875        C  0.36906263  0.78092634  0.71696049     0.25700
C876        C  0.33354893  0.77321269  0.70731365    -0.12000
C877        C  0.32175335  0.79659411  0.71844729    -0.26000
C878        C  0.34759072  0.82951076  0.73717158     0.36500
C879        C  0.42793030  0.81655215  0.75512490     0.06100
F880        F  0.37778420  0.75584394  0.70864054    -0.19800
H881        H  0.31447010  0.74775348  0.69278213     0.15900
F882        F  0.33764139  0.85300444  0.74852577    -0.23500
H883        H  0.40185577  0.86157579  0.76323797     0.17700
C884        C  0.45400585  0.81353842  0.73319555     0.25700
C885        C  0.48208004  0.81097674  0.75096741    -0.12000
C886        C  0.48434967  0.81098672  0.79085282    -0.26000
C887        C  0.45977956  0.81645087  0.81255155     0.36600
C888        C  0.43202384  0.81931441  0.79478729    -0.27700
F889        F  0.45169116  0.81208339  0.69468634    -0.19800
H890        H  0.50095431  0.80731030  0.73357901     0.15900
F891        F  0.46207908  0.81833672  0.85106386    -0.23500
H892        H  0.41241935  0.82181749  0.81226159     0.17700
C893        C  0.18856212  0.62496994  0.57423625    -0.27600
C894        C  0.17348685  0.59206835  0.59487680     0.06100
C895        C  0.15924683  0.58972893  0.63165296     0.25700
C896        C  0.16165459  0.62023451  0.64798288    -0.12000
C897        C  0.17800209  0.65351655  0.62790173    -0.26000
C898        C  0.19072268  0.65544951  0.59049498     0.36500
C899        C  0.17493820  0.56128373  0.57877854     0.06100
F900        F  0.14354991  0.55812670  0.65202513    -0.19800
H901        H  0.15165819  0.61816628  0.67685983     0.15900
F902        F  0.20789693  0.68750988  0.57079953    -0.23500
H903        H  0.20026759  0.62760540  0.54609226     0.17700
C904        C  0.16285796  0.54916742  0.54150757     0.25700
C905        C  0.16774256  0.52263445  0.52534896    -0.12000
C906        C  0.18442898  0.50739332  0.54608276    -0.26000
C907        C  0.19519728  0.51844983  0.58388500     0.36600
C908        C  0.19059974  0.54527943  0.59996168    -0.27700
F909        F  0.14664047  0.56323818  0.52059957    -0.19800
H910        H  0.15905815  0.51442718  0.49622134     0.15900
F911        F  0.21242223  0.50520189  0.60440588    -0.23500
H912        H  0.20068622  0.55462954  0.62852429     0.17700
C913        C  0.04381004  0.69710906  0.10823091    -0.27600
C914        C  0.03060240  0.71830303  0.09386150     0.06100
C915        C  0.05357745  0.75665475  0.09676702     0.25700
C916        C  0.08970255  0.77339174  0.11215782    -0.12000
C917        C  0.10373903  0.75227510  0.12492019    -0.26000
C918        C  0.07985446  0.71374535  0.12363874     0.36500
C919        C  0.99331560  0.70011003  0.07507605     0.06100
F920        F  0.04189612  0.77800703  0.08280827    -0.19800
H921        H  0.10733974  0.80303396  0.11241254     0.15900
F922        F  0.09146780  0.69201622  0.13660228    -0.23500
H923        H  0.02626422  0.66747616  0.10701703     0.17700
C924        C  0.98452287  0.67521877  0.04520916     0.25700
C925        C  0.94854238  0.65601952  0.02949904    -0.12000
C926        C  0.92054954  0.66128666  0.04302943    -0.26000
C927        C  0.92971978  0.68719535  0.07199179     0.36600
C928        C  0.96582260  0.70645465  0.08772075    -0.27700
F929        F  0.01067167  0.66916028  0.03147086    -0.19800
H930        H  0.94221437  0.63616917  0.00735568     0.15900
F931        F  0.90310414  0.69192602  0.08708333    -0.23500
H932        H  0.97186745  0.72524214  0.11091547     0.17700
C933        C  0.30219383  0.04401268  0.25039546    -0.27600
C934        C  0.30930641  0.01991793  0.26955108     0.06100
C935        C  0.33648631  0.03398198  0.29850889     0.25700
C936        C  0.35728587  0.07151632  0.30658667    -0.12000
C937        C  0.35082722  0.09561691  0.28667198    -0.26000
C938        C  0.32257373  0.08146226  0.25895201     0.36500
C939        C  0.29081141  0.98113121  0.25688692     0.06100
F940        F  0.34331616  0.01151856  0.31867304    -0.19800
H941        H  0.37894775  0.08192424  0.32804304     0.15900
F942        F  0.31661725  0.10421359  0.23815013    -0.23500
H943        H  0.28205150  0.03415337  0.22747478     0.17700
C944        C  0.25204389  0.95944222  0.24927771     0.25700
C945        C  0.23595364  0.92418970  0.23404985    -0.12000
C946        C  0.25799198  0.90961023  0.22706779    -0.26000
C947        C  0.29645139  0.93082177  0.23567990     0.36600
C948        C  0.31265432  0.96626622  0.25003733    -0.27700
F949        F  0.22967401  0.97218222  0.25686835    -0.19800
H950        H  0.20619288  0.90813416  0.22797671     0.15900
F951        F  0.31879529  0.91796876  0.22842685    -0.23500
H952        H  0.34265336  0.98254731  0.25474958     0.17700
C953        C  0.43311027  0.81808062  0.28859643    -0.27600
C954        C  0.42726994  0.81207003  0.24930121     0.06100
C955        C  0.45204429  0.80650558  0.22805222     0.25700
C956        C  0.48033976  0.80457007  0.24632038    -0.12000
C957        C  0.48431068  0.80794691  0.28605250    -0.26000
C958        C  0.46119753  0.81606501  0.30681990     0.36500
C959        C  0.39324800  0.80835373  0.23211101     0.06100
F960        F  0.44841035  0.80215571  0.18977997    -0.19800
H961        H  0.49792894  0.79862508  0.22959545     0.15900
F962        F  0.46507021  0.82114844  0.34501805    -0.23500
H963        H  0.41465222  0.82261151  0.30564874     0.17700
C964        C  0.36776038  0.77684884  0.21134067     0.25700
C965        C  0.33247088  0.76990454  0.20186012    -0.12000
C966        C  0.32137746  0.79381391  0.21321502    -0.26000
C967        C  0.34792579  0.82672179  0.23144607     0.36600
C968        C  0.38337573  0.83372848  0.24086534    -0.27700
F969        F  0.37542907  0.75098738  0.20319058    -0.19800
H970        H  0.31290244  0.74445502  0.18756997     0.15900
F971        F  0.33885455  0.85088874  0.24271984    -0.23500
H972        H  0.40257180  0.85828222  0.25667479     0.17700
C973        C  0.20637989  0.57320477  0.04534823    -0.27600
C974        C  0.17721951  0.56201063  0.07184171     0.06100
C975        C  0.15391011  0.52443831  0.08087742     0.25700
C976        C  0.16072532  0.49904966  0.06471074    -0.12000
C977        C  0.19024602  0.51044841  0.03854594    -0.26000
C978        C  0.21275277  0.54786560  0.02868206     0.36500
C979        C  0.17303799  0.59022080  0.09095218     0.06100
F980        F  0.12412770  0.51212625  0.10472192    -0.19800
H981        H  0.14251872  0.47035034  0.07222456     0.15900
F982        F  0.24170795  0.56032498  0.00368044    -0.23500
H983        H  0.22497969  0.60192695  0.03812620     0.17700
C984        C  0.17015086  0.59067882  0.13076838     0.25700
C985        C  0.17141222  0.61997561  0.14879470    -0.12000
C986        C  0.17640096  0.64999023  0.12782045    -0.26000
C987        C  0.17785254  0.64890040  0.08783295     0.36600
C988        C  0.17599604  0.61921723  0.06973613    -0.27700
F989        F  0.16911516  0.56434513  0.15263142    -0.19800
H990        H  0.17038586  0.61993705  0.17957421     0.15900
F991        F  0.18344865  0.67741638  0.06623373    -0.23500
H992        H  0.17827788  0.61953916  0.03902911     0.17700
C993        C  0.20812655  0.80652825  0.96685879    -0.27600
C994        C  0.22236194  0.78723124  0.94991694     0.06100
C995        C  0.23685954  0.77144623  0.97334981     0.25700
C996        C  0.23600611  0.77415768  0.01296300    -0.12000
C997        C  0.22134181  0.79317540  0.02993960    -0.26000
C998        C  0.20767450  0.80965684  0.00629853     0.36500
C999        C  0.22130933  0.78354690  0.90790313     0.06100
F1000       F  0.25251570  0.75404129  0.95801968    -0.19800
H1001       H  0.24708962  0.76156043  0.03035634     0.15900
F1002       F  0.19277126  0.82794981  0.02112549    -0.23500
H1003       H  0.19658846  0.81869154  0.94945267     0.17700
C1004       C  0.20645433  0.74915204  0.89075843     0.25700
C1005       C  0.20441200  0.74598582  0.85120403    -0.12000
C1006       C  0.21646011  0.77681271  0.82784503    -0.26000
C1007       C  0.23087935  0.81117629  0.84498600     0.36600
C1008       C  0.23337654  0.81441615  0.88461322    -0.27700
F1009       F  0.19264261  0.71835104  0.91217187    -0.19800
H1010       H  0.19282473  0.71912550  0.83880606     0.15900
F1011       F  0.24345737  0.84177400  0.82356583    -0.23500
H1012       H  0.24493546  0.84119839  0.89719342     0.17700
C1013       C  0.24110128  0.76962140  0.38925319    -0.27600
C1014       C  0.22556961  0.78744747  0.40699189     0.06100
C1015       C  0.20834550  0.80099131  0.38429894     0.25700
C1016       C  0.20647259  0.79634559  0.34477952    -0.12000
C1017       C  0.22125242  0.77771362  0.32712129    -0.26000
C1018       C  0.23884223  0.76455773  0.34988934     0.36500
C1019       C  0.22686751  0.79108394  0.44910638     0.06100
F1020       F  0.19212130  0.81754473  0.40040282    -0.19800
H1021       H  0.19265936  0.80664019  0.32806628     0.15900
F1022       F  0.25434874  0.74715480  0.33419987    -0.23500
H1023       H  0.25514044  0.75958082  0.40598612     0.17700
C1024       C  0.21584187  0.76060003  0.47268587     0.25700
C1025       C  0.21649110  0.76399382  0.51224340    -0.12000
C1026       C  0.22793039  0.79773524  0.52932870    -0.26000
C1027       C  0.23966409  0.82845512  0.50568091     0.36600
C1028       C  0.23912630  0.82504401  0.46605012    -0.27700
F1029       F  0.20301354  0.72710419  0.45750497    -0.19800
H1030       H  0.20682073  0.73976441  0.52950113     0.15900
F1031       F  0.25176094  0.86185629  0.52070096    -0.23500
H1032       H  0.24843942  0.84906550  0.44852550     0.17700
loop_ 
_geom_bond_atom_site_label_1 
_geom_bond_atom_site_label_2 
_geom_bond_distance 
_geom_bond_site_symmetry_2 
_ccdc_geom_bond_type 
O1           Ni7   1.914       .  S
O1           C22   1.269       .  A
O2          Ni25   1.900       .  S
O2           C11   1.266       .  A
O3           Ni7   1.922       .  S
O3          Ni25   1.920       .  S
O3          Ni19   1.938       .  S
O3           H26   0.966       .  S
C4           O21   1.276       .  A
C4           O13   1.278       .  A
C4          C997   1.484       .  S
O5          Ni24   1.947       .  S
O5           C11   1.275       .  A
O6          Ni24   1.916       .  S
O6            C8   1.271       .  A
Ni7          O10   1.933       .  S
Ni7          O12   1.897       .  S
C8           O18   1.274       .  A
C8          C917   1.493       .  S
O9          Ni25   1.905       .  S
O9           C15   1.264       .  A
O10          C15   1.270       .  A
C11         C946   1.479       .  S
O12          C14   1.270       .  A
O13         Ni24   1.933       .  S
C14          O20   1.282       .  A
C14         C966   1.491       .  S
C15        C1017   1.486       .  S
H16          O17   0.966       .  S
O17         Ni25   1.890       .  S
O17         Ni19   1.897       .  S
O17         Ni24   1.916       .  S
O18         Ni19   1.936       .  S
Ni19         O23   1.913       .  S
Ni19         O21   1.911       .  S
O20         Ni25   1.962       .  S
C22          O23   1.269       .  A
C22         C986   1.488       .  S
O27         Ni33   1.909       .  S
O27          C48   1.267       .  A
O28         Ni51   1.897       .  S
O28          C37   1.266       .  A
O29         Ni33   1.922       .  S
O29         Ni51   1.921       .  S
O29         Ni45   1.940       .  S
O29          H52   0.966       .  S
C30          O47   1.278       .  A
C30          O39   1.279       .  A
C30        C1026   1.487       .  S
O31         Ni50   1.943       .  S
O31          C37   1.274       .  A
O32         Ni50   1.915       .  S
O32          C34   1.271       .  A
Ni33         O36   1.919       .  S
Ni33         O38   1.900       .  S
C34          O44   1.272       .  A
C34         C837   1.487       .  S
O35         Ni51   1.910       .  S
O35          C41   1.267       .  A
O36          C41   1.268       .  A
C37         C866   1.472       .  S
O38          C40   1.271       .  A
O39         Ni50   1.932       .  S
C40          O46   1.280       .  A
C40         C877   1.489       .  S
C41        C1006   1.481       .  S
H42          O43   0.966       .  S
O43         Ni51   1.896       .  S
O43         Ni45   1.893       .  S
O43         Ni50   1.915       .  S
O44         Ni45   1.928       .  S
Ni45         O49   1.908       .  S
Ni45         O47   1.917       .  S
O46         Ni51   1.952       .  S
C48          O49   1.267       .  A
C48         C897   1.474       .  S
O53         Ni59   1.925       .  S
O53          C74   1.271       .  A
O54         Ni77   1.917       .  S
O54          C63   1.269       .  A
O55         Ni59   1.919       .  S
O55         Ni77   1.922       .  S
O55         Ni71   1.928       .  S
O55          H78   0.966       .  S
C56          O73   1.274       .  A
C56          O65   1.272       .  A
C56         C826   1.484       .  S
O57         Ni76   1.928       .  S
O57          C63   1.270       .  A
O58         Ni76   1.914       .  S
O58          C60   1.271       .  A
Ni59         O62   1.932       .  S
Ni59         O64   1.906       .  S
C60          O70   1.274       .  A
C60         C746   1.485       .  S
O61         Ni77   1.907       .  S
O61          C67   1.269       .  A
O62          C67   1.273       .  A
C63         C766   1.491       .  S
O64          C66   1.270       .  A
O65         Ni76   1.914       .  S
C66          O72   1.277       .  A
C66         C777   1.480       .  S
C67         C806   1.484       .  S
H68          O69   0.966       .  S
O69         Ni77   1.905       .  S
O69         Ni71   1.911       .  S
O69         Ni76   1.921       .  S
O70         Ni71   1.932       .  S
Ni71         O75   1.916       .  S
Ni71         O73   1.917       .  S
O72         Ni77   1.946       .  S
C74          O75   1.269       .  A
C74         C957   1.487       .  S
O79         Ni85   1.930       .  S
O79         C100   1.272       .  A
O80        Ni103   1.917       .  S
O80          C89   1.271       .  A
O81         Ni85   1.908       .  S
O81        Ni103   1.915       .  S
O81         Ni97   1.921       .  S
O81         H104   0.966       .  S
C82          O99   1.278       .  A
C82          O91   1.276       .  A
C82         C797   1.483       .  S
O83        Ni102   1.937       .  S
O83          C89   1.275       .  A
O84        Ni102   1.921       .  S
O84          C86   1.272       .  A
Ni85         O88   1.918       .  S
Ni85         O90   1.904       .  S
C86          O96   1.269       .  A
C86         C677   1.476       .  S
O87        Ni103   1.908       .  S
O87          C93   1.272       .  A
O88          C93   1.274       .  A
C89         C697   1.488       .  S
O90          C92   1.271       .  A
O91        Ni102   1.922       .  S
C92          O98   1.276       .  A
C92         C726   1.480       .  S
C93         C817   1.476       .  S
H94          O95   0.966       .  S
O95        Ni103   1.904       .  S
O95         Ni97   1.907       .  S
O95        Ni102   1.911       .  S
O96         Ni97   1.921       .  S
Ni97        O101   1.913       .  S
Ni97         O99   1.920       .  S
O98        Ni103   1.935       .  S
C100        O101   1.268       .  A
C100        C886   1.485       .  S
O105       Ni111   1.928       .  S
O105        C126   1.271   1_556  A
O106       Ni129   1.892       .  S
O106        C115   1.267       .  A
O107       Ni111   1.904       .  S
O107       Ni129   1.899       .  S
O107       Ni123   1.915   1_556  S
O107        H130   0.966       .  S
C108        O125   1.278       .  A
C108        O117   1.280       .  A
C108        C626   1.480       .  S
O109       Ni128   1.945   1_556  S
O109        C115   1.277       .  A
O110       Ni128   1.919       .  S
O110        C112   1.273       .  A
Ni111       O114   1.918       .  S
Ni111       O116   1.907       .  S
C112        O122   1.270       .  A
C112        C646   1.486       .  S
O113       Ni129   1.920       .  S
O113        C119   1.276       .  A
O114        C119   1.276       .  A
C115        C657   1.486       .  S
O116        C118   1.268       .  A
O117       Ni128   1.930       .  S
C118        O124   1.270       .  A
C118        C717   1.466       .  S
C119        C606   1.483       .  S
H120        O121   0.966       .  S
O121       Ni129   1.901   1_554  S
O121       Ni123   1.899       .  S
O121       Ni128   1.904       .  S
O122       Ni123   1.916       .  S
Ni123       O127   1.915       .  S
Ni123       O125   1.914       .  S
O124       Ni129   1.925       .  S
C126        O127   1.270       .  A
C126        C977   1.484       .  S
O131       Ni137   1.911       .  S
O131        C152   1.268       .  A
O132       Ni155   1.900       .  S
O132        C141   1.266       .  A
O133       Ni137   1.921       .  S
O133       Ni155   1.917       .  S
O133       Ni149   1.937       .  S
O133        H156   0.966       .  S
C134        O151   1.275       .  A
C134        O143   1.273       .  A
C134        C597   1.487       .  S
O135       Ni154   1.934       .  S
O135        C141   1.273       .  A
O136       Ni154   1.916       .  S
O136        C138   1.272       .  A
Ni137       O140   1.927       .  S
Ni137       O142   1.904       .  S
C138        O148   1.276       .  A
C138        C557   1.493       .  S
O139       Ni155   1.908       .  S
O139        C145   1.266       .  A
O140        C145   1.270       .  A
C141        C577   1.484       .  S
O142        C144   1.271       .  A
O143       Ni154   1.922       .  S
C144        O150   1.279       .  A
C144        C786   1.479       .  S
C145        C617   1.485       .  S
H146        O147   0.967       .  S
O147       Ni155   1.902       .  S
O147       Ni149   1.905       .  S
O147       Ni154   1.919       .  S
O148       Ni149   1.936       .  S
Ni149       O153   1.915       .  S
Ni149       O151   1.917       .  S
O150       Ni155   1.953       .  S
C152        O153   1.270       .  A
C152        C906   1.479       .  S
O157       Ni163   1.919       .  S
O157        C178   1.269       .  A
O158       Ni181   1.907       .  S
O158        C167   1.269       .  A
O159       Ni163   1.901       .  S
O159       Ni181   1.908       .  S
O159       Ni175   1.914       .  S
O159        H182   0.966       .  S
C160        O177   1.276       .  A
C160        O169   1.277       .  A
C160        C537   1.481       .  S
O161       Ni180   1.936       .  S
O161        C167   1.275       .  A
O162       Ni180   1.915       .  S
O162        C164   1.271       .  A
Ni163       O166   1.915       .  S
Ni163       O168   1.899       .  S
C164        O174   1.271       .  A
C164        C937   1.477       .  S
O165       Ni181   1.917       .  S
O165        C171   1.275       .  A
O166        C171   1.275       .  A
C167        C586   1.488       .  S
O168        C170   1.268       .  A
O169       Ni180   1.924       .  S
C170        O176   1.273       .  A
C170        C497   1.477       .  S
C171        C526   1.484       .  S
H172        O173   0.966       .  S
O173       Ni181   1.905       .  S
O173       Ni175   1.905       .  S
O173       Ni180   1.908       .  S
O174       Ni175   1.926       .  S
Ni175       O179   1.917       .  S
Ni175       O177   1.911       .  S
O176       Ni181   1.933       .  S
C178        O179   1.268       .  A
C178        C486   1.485       .  S
O183       Ni189   1.919       .  S
O183        C204   1.269       .  A
O184       Ni207   1.906       .  S
O184        C193   1.270       .  A
O185       Ni189   1.905       .  S
O185       Ni207   1.913       .  S
O185       Ni201   1.920       .  S
O185        H208   0.966       .  S
C186        O203   1.276       .  A
C186        O195   1.278       .  A
C186        C517   1.477       .  S
O187       Ni206   1.936       .  S
O187        C193   1.274       .  A
O188       Ni206   1.906       .  S
O188        C190   1.268       .  A
Ni189       O192   1.915       .  S
Ni189       O194   1.899       .  S
C190        O200   1.272       .  A
C190        C857   1.473       .  S
O191       Ni207   1.914       .  S
O191        C197   1.273       .  A
O192        C197   1.273       .  A
C193        C666   1.486       .  S
O194        C196   1.270       .  A
O195       Ni206   1.928       .  S
C196        O202   1.276       .  A
C196        C457   1.483       .  S
C197        C546   1.484       .  S
H198        O199   0.966       .  S
O199       Ni207   1.901       .  S
O199       Ni201   1.901       .  S
O199       Ni206   1.909       .  S
O200       Ni201   1.929       .  S
Ni201       O205   1.919       .  S
Ni201       O203   1.910       .  S
O202       Ni207   1.939       .  S
C204        O205   1.270       .  A
C204        C437   1.480       .  S
O209       Ni215   1.911       .  S
O209        C230   1.267       .  A
O210       Ni233   1.909       .  S
O210        C219   1.268       .  A
O211       Ni215   1.923       .  S
O211       Ni233   1.919       .  S
O211       Ni227   1.933       .  S
O211        H234   0.966       .  S
C212        O229   1.273       .  A
C212        O221   1.278       .  A
C212        C406   1.487       .  S
O213       Ni232   1.949       .  S
O213        C219   1.274       .  A
O214       Ni232   1.905       .  S
O214        C216   1.270       .  A
Ni215       O218   1.934       .  S
Ni215       O220   1.895       .  S
C216        O226   1.276       .  A
C216        C637   1.482       .  S
O217       Ni233   1.907       .  S
O217        C223   1.267       .  A
O218        C223   1.270       .  A
C219        C737   1.486       .  S
O220        C222   1.268       .  A
O221       Ni232   1.938       .  S
C222        O228   1.280       .  A
C222        C477   1.480       .  S
C223        C417   1.483       .  S
H224        O225   0.966       .  S
O225       Ni233   1.899       .  S
O225       Ni227   1.909       .  S
O225       Ni232   1.920       .  S
O226       Ni227   1.939       .  S
Ni227       O231   1.921       .  S
Ni227       O229   1.911       .  S
O228       Ni233   1.953       .  S
C230        O231   1.271       .  A
C230        C386   1.492       .  S
O235       Ni241   1.917       .  S
O235        C256   1.269       .  A
O236       Ni259   1.904       .  S
O236        C245   1.268       .  A
O237       Ni241   1.922       .  S
O237       Ni259   1.920       .  S
O237       Ni253   1.944       .  S
O237        H260   0.966       .  S
C238        O255   1.277       .  A
C238        O247   1.281       .  A
C238        C426   1.489       .  S
O239       Ni258   1.950       .  S
O239        C245   1.277       .  A
O240       Ni258   1.923       .  S
O240        C242   1.271       .  A
Ni241       O244   1.930       .  S
Ni241       O246   1.902       .  S
C242        O252   1.271       .  A
C242        C566   1.484       .  S
O243       Ni259   1.906       .  S
O243        C249   1.264       .  A
O244        C249   1.269       .  A
C245        C686   1.486       .  S
O246        C248   1.273       .  A
O247       Ni258   1.943       .  S
C248        O254   1.284       .  A
C248        C446   1.493       .  S
C249        C397   1.486       .  S
H250        O251   0.966       .  S
O251       Ni259   1.890       .  S
O251       Ni253   1.897       .  S
O251       Ni258   1.916       .  S
O252       Ni253   1.922       .  S
Ni253       O257   1.920       .  S
Ni253       O255   1.911       .  S
O254       Ni259   1.958       .  S
C256        O257   1.270       .  A
C256        C366   1.491       .  S
O261       Ni267   1.911       .  S
O261        C282   1.267   1_556  A
O262       Ni285   1.914       .  S
O262        C271   1.270       .  A
O263       Ni267   1.913       .  S
O263       Ni285   1.925       .  S
O263       Ni279   1.924   1_556  S
O263        H286   0.966       .  S
C264        O281   1.278       .  A
C264        O273   1.277       .  A
C264        C337   1.482       .  S
O265       Ni284   1.938   1_556  S
O265        C271   1.275       .  A
O266       Ni284   1.922       .  S
O266        C268   1.273       .  A
Ni267       O270   1.906       .  S
Ni267       O272   1.898       .  S
C268        O278   1.270       .  A
C268        C926   1.484       .  S
O269       Ni285   1.919       .  S
O269        C275   1.273       .  A
O270        C275   1.269       .  A
C271        C706   1.496       .  S
O272        C274   1.269       .  A
O273       Ni284   1.921       .  S
C274        O280   1.275       .  A
C274        C466   1.477       .  S
C275        C326   1.482       .  S
H276        O277   0.966       .  S
O277       Ni285   1.906   1_554  S
O277       Ni279   1.905       .  S
O277       Ni284   1.912       .  S
O278       Ni279   1.918       .  S
Ni279       O283   1.919       .  S
Ni279       O281   1.920       .  S
O280       Ni285   1.938       .  S
C282        O283   1.268       .  A
C282        C377   1.487       .  S
O287       Ni293   1.922       .  S
O287        C308   1.269       .  A
O288       Ni311   1.919       .  S
O288        C297   1.270       .  A
O289       Ni293   1.920       .  S
O289       Ni311   1.926       .  S
O289       Ni305   1.938       .  S
O289        H312   0.966       .  S
C290        O307   1.275       .  A
C290        O299   1.275       .  A
C290        C317   1.481       .  S
O291       Ni310   1.929       .  S
O291        C297   1.271       .  A
O292       Ni310   1.913       .  S
O292        C294   1.270       .  A
Ni293       O296   1.924       .  S
Ni293       O298   1.904       .  S
C294        O304   1.272       .  A
C294        C846   1.486       .  S
O295       Ni311   1.911       .  S
O295        C301   1.268       .  A
O296        C301   1.269       .  A
C297        C757   1.492       .  S
O298        C300   1.273       .  A
O299       Ni310   1.920       .  S
C300        O306   1.280       .  A
C300        C506   1.486       .  S
C301        C346   1.485       .  S
H302        O303   0.966       .  S
O303       Ni311   1.900       .  S
O303       Ni305   1.902       .  S
O303       Ni310   1.916       .  S
O304       Ni305   1.927       .  S
Ni305       O309   1.914       .  S
Ni305       O307   1.913       .  S
O306       Ni311   1.952       .  S
C308        O309   1.268       .  A
C308        C357   1.485       .  S
C313        C314   1.400       .  A
C313        C318   1.393       .  A
C313        H323   1.084       .  S
C314        C319   1.480       .  S
C314        C315   1.409       .  A
C315        C316   1.399       .  A
C315        F320   1.357       .  S
C316        C317   1.405       .  A
C316        H321   1.083       .  S
C317        C318   1.412       .  A
C318        F322   1.358       .  S
C319        C324   1.403       .  A
C319        C328   1.406       .  A
C324        C325   1.394       .  A
C324        F329   1.358       .  S
C325        C326   1.409       .  A
C325        H330   1.083       .  S
C326        C327   1.407       .  A
C327        C328   1.399       .  A
C327        F331   1.357       .  S
C328        H332   1.083       .  S
C333        C334   1.401       .  A
C333        C338   1.396       .  A
C333        H343   1.083       .  S
C334        C339   1.481       .  S
C334        C335   1.408       .  A
C335        C336   1.400       .  A
C335        F340   1.358       .  S
C336        C337   1.406       .  A
C336        H341   1.083       .  S
C337        C338   1.411       .  A
C338        F342   1.358       .  S
C339        C344   1.408       .  A
C339        C348   1.400       .  A
C344        C345   1.400       .  A
C344        F349   1.358       .  S
C345        C346   1.406       .  A
C345        H350   1.083       .  S
C346        C347   1.413       .  A
C347        C348   1.395       .  A
C347        F351   1.358       .  S
C348        H352   1.083       .  S
C353        C354   1.406       .  A
C353        C358   1.402       .  A
C353        H363   1.083       .  S
C354        C359   1.496       .  S
C354        C355   1.413       .  A
C355        C356   1.401       .  A
C355        F360   1.357       .  S
C356        C357   1.403       .  A
C356        H361   1.083       .  S
C357        C358   1.409       .  A
C358        F362   1.358       .  S
C359        C364   1.412       .  A
C359        C368   1.405       .  A
C364        C365   1.403       .  A
C364        F369   1.357       .  S
C365        C366   1.405       .  A
C365        H370   1.083       .  S
C366        C367   1.412       .  A
C367        C368   1.399       .  A
C367        F371   1.358       .  S
C368        H372   1.083       .  S
C373        C374   1.410       .  A
C373        C378   1.404       .  A
C373        H383   1.083       .  S
C374        C379   1.487       .  S
C374        C375   1.403       .  A
C375        C376   1.392       .  A
C375        F380   1.357       .  S
C376        C377   1.409       .  A
C376        H381   1.083   1_554  S
C377        C378   1.408       .  A
C378        F382   1.357       .  S
C379        C384   1.410       .  A
C379        C388   1.400       .  A
C384        C385   1.404       .  A
C384        F389   1.357       .  S
C385        C386   1.407       .  A
C385        H390   1.083       .  S
C386        C387   1.415       .  A
C387        C388   1.395       .  A
C387        F391   1.358       .  S
C388        H392   1.084       .  S
C393        C394   1.406       .  A
C393        C398   1.401       .  A
C393        H403   1.083       .  S
C394        C399   1.489       .  S
C394        C395   1.407       .  A
C395        C396   1.400       .  A
C395        F400   1.357       .  S
C396        C397   1.407       .  A
C396        H401   1.083       .  S
C397        C398   1.409       .  A
C398        F402   1.358       .  S
C399        C404   1.409       .  A
C399        C408   1.404       .  A
C404        C405   1.401   1_556  A
C404        F409   1.357       .  S
C405        C406   1.407       .  A
C405        H410   1.083       .  S
C406        C407   1.411       .  A
C407        C408   1.399   1_554  A
C407        F411   1.358       .  S
C408        H412   1.083       .  S
C413        C414   1.406       .  A
C413        C418   1.399       .  A
C413        H423   1.083       .  S
C414        C419   1.493       .  S
C414        C415   1.411       .  A
C415        C416   1.399       .  A
C415        F420   1.357       .  S
C416        C417   1.404       .  A
C416        H421   1.083       .  S
C417        C418   1.410       .  A
C418        F422   1.358       .  S
C419        C424   1.410       .  A
C419        C428   1.406       .  A
C424        C425   1.399       .  A
C424        F429   1.357       .  S
C425        C426   1.406       .  A
C425        H430   1.083       .  S
C426        C427   1.411       .  A
C427        C428   1.399       .  A
C427        F431   1.358       .  S
C428        H432   1.083       .  S
C433        C434   1.409       .  A
C433        C438   1.406       .  A
C433        H443   1.083       .  S
C434        C439   1.487       .  S
C434        C435   1.406       .  A
C435        C436   1.395       .  A
C435        F440   1.358       .  S
C436        C437   1.404       .  A
C436        H441   1.084       .  S
C437        C438   1.407       .  A
C438        F442   1.357       .  S
C439        C444   1.407       .  A
C439        C448   1.402       .  A
C444        C445   1.402       .  A
C444        F449   1.357       .  S
C445        C446   1.408       .  A
C445        H450   1.083       .  S
C446        C447   1.414       .  A
C447        C448   1.399       .  A
C447        F451   1.358       .  S
C448        H452   1.083       .  S
C453        C454   1.406       .  A
C453        C458   1.406       .  A
C453        H463   1.083       .  S
C454        C459   1.483       .  S
C454        C455   1.405       .  A
C455        C456   1.391       .  A
C455        F460   1.358       .  S
C456        C457   1.405       .  A
C456        H461   1.084       .  S
C457        C458   1.410       .  A
C458        F462   1.357       .  S
C459        C464   1.407       .  A
C459        C468   1.404       .  A
C464        C465   1.404       .  A
C464        F469   1.357       .  S
C465        C466   1.406       .  A
C465        H470   1.083       .  S
C466        C467   1.406       .  A
C467        C468   1.393       .  A
C467        F471   1.358       .  S
C468        H472   1.084       .  S
C473        C474   1.401       .  A
C473        C478   1.398       .  A
C473        H483   1.084       .  S
C474        C479   1.477       .  S
C474        C475   1.405       .  A
C475        C476   1.398       .  A
C475        F480   1.357       .  S
C476        C477   1.405       .  A
C476        H481   1.083       .  S
C477        C478   1.411       .  A
C478        F482   1.358       .  S
C479        C484   1.402       .  A
C479        C488   1.404       .  A
C484        C485   1.391       .  A
C484        F489   1.358       .  S
C485        C486   1.407       .  A
C485        H490   1.083       .  S
C486        C487   1.411       .  A
C487        C488   1.404       .  A
C487        F491   1.357       .  S
C488        H492   1.083       .  S
C493        C494   1.405       .  A
C493        C498   1.406       .  A
C493        H503   1.083       .  S
C494        C499   1.479       .  S
C494        C495   1.404       .  A
C495        C496   1.392       .  A
C495        F500   1.358       .  S
C496        C497   1.403       .  A
C496        H501   1.084       .  S
C497        C498   1.408       .  A
C498        F502   1.357       .  S
C499        C504   1.404       .  A
C499        C508   1.402       .  A
C504        C505   1.404       .  A
C504        F509   1.357       .  S
C505        C506   1.410       .  A
C505        H510   1.083       .  S
C506        C507   1.409       .  A
C507        C508   1.394       .  A
C507        F511   1.358       .  S
C508        H512   1.084       .  S
C513        C514   1.405       .  A
C513        C518   1.396       .  A
C513        H523   1.083       .  S
C514        C519   1.486       .  S
C514        C515   1.410       .  A
C515        C516   1.397       .  A
C515        F520   1.357       .  S
C516        C517   1.403       .  A
C516        H521   1.083       .  S
C517        C518   1.408       .  A
C518        F522   1.358       .  S
C519        C524   1.407       .  A
C519        C528   1.406       .  A
C524        C525   1.395       .  A
C524        F529   1.357       .  S
C525        C526   1.407       .  A
C525        H530   1.083       .  S
C526        C527   1.409       .  A
C527        C528   1.398       .  A
C527        F531   1.357       .  S
C528        H532   1.083       .  S
C533        C534   1.402       .  A
C533        C538   1.392       .  A
C533        H543   1.083       .  S
C534        C539   1.484       .  S
C534        C535   1.409       .  A
C535        C536   1.399       .  A
C535        F540   1.357       .  S
C536        C537   1.406       .  A
C536        H541   1.083       .  S
C537        C538   1.410       .  A
C538        F542   1.358       .  S
C539        C544   1.406       .  A
C539        C548   1.405       .  A
C544        C545   1.397       .  A
C544        F549   1.357       .  S
C545        C546   1.408   1_554  A
C545        H550   1.083   1_554  S
C546        C547   1.409       .  A
C547        C548   1.395   1_556  A
C547        F551   1.358       .  S
C548        H552   1.083       .  S
C553        C554   1.405       .  A
C553        C558   1.405       .  A
C553        H563   1.083       .  S
C554        C559   1.490   1_455  S
C554        C555   1.407       .  A
C555        C556   1.396       .  A
C555        F560   1.358       .  S
C556        C557   1.407       .  A
C556        H561   1.083       .  S
C557        C558   1.413       .  A
C558        F562   1.357       .  S
C559        C564   1.405       .  A
C559        C568   1.410       .  A
C564        C565   1.393       .  A
C564        F569   1.358       .  S
C565        C566   1.405       .  A
C565        H570   1.084       .  S
C566        C567   1.408       .  A
C567        C568   1.408       .  A
C567        F571   1.357       .  S
C568        H572   1.083       .  S
C573        C574   1.405       .  A
C573        C578   1.400       .  A
C573        H583   1.083       .  S
C574        C579   1.484       .  S
C574        C575   1.405       .  A
C575        C576   1.399       .  A
C575        F580   1.358       .  S
C576        C577   1.407       .  A
C576        H581   1.083       .  S
C577        C578   1.409       .  A
C578        F582   1.358       .  S
C579        C584   1.404       .  A
C579        C588   1.405       .  A
C584        C585   1.398       .  A
C584        F589   1.358       .  S
C585        C586   1.408       .  A
C585        H590   1.083       .  S
C586        C587   1.411       .  A
C587        C588   1.401       .  A
C587        F591   1.357       .  S
C588        H592   1.083       .  S
C593        C594   1.400       .  A
C593        C598   1.394       .  A
C593        H603   1.084       .  S
C594        C599   1.482       .  S
C594        C595   1.408       .  A
C595        C596   1.401       .  A
C595        F600   1.357       .  S
C596        C597   1.406       .  A
C596        H601   1.083       .  S
C597        C598   1.415       .  A
C598        F602   1.358       .  S
C599        C604   1.405       .  A
C599        C608   1.404       .  A
C604        C605   1.397       .  A
C604        F609   1.357       .  S
C605        C606   1.407       .  A
C605        H610   1.083       .  S
C606        C607   1.411       .  A
C607        C608   1.398       .  A
C607        F611   1.358       .  S
C608        H612   1.083       .  S
C613        C614   1.407       .  A
C613        C618   1.400       .  A
C613        H623   1.083       .  S
C614        C619   1.484       .  S
C614        C615   1.404       .  A
C615        C616   1.394       .  A
C615        F620   1.358       .  S
C616        C617   1.408       .  A
C616        H621   1.083       .  S
C617        C618   1.409       .  A
C618        F622   1.357       .  S
C619        C624   1.405       .  A
C619        C628   1.406       .  A
C624        C625   1.396       .  A
C624        F629   1.358       .  S
C625        C626   1.407       .  A
C625        H630   1.083       .  S
C626        C627   1.407       .  A
C627        C628   1.399       .  A
C627        F631   1.358       .  S
C628        H632   1.083       .  S
C633        C634   1.404       .  A
C633        C638   1.398       .  A
C633        H643   1.083       .  S
C634        C639   1.491   1_655  S
C634        C635   1.411       .  A
C635        C636   1.400       .  A
C635        F640   1.358   1_655  S
C636        C637   1.404       .  A
C636        H641   1.083       .  S
C637        C638   1.409       .  A
C638        F642   1.357       .  S
C639        C644   1.410       .  A
C639        C648   1.404       .  A
C644        C645   1.403       .  A
C644        F649   1.357       .  S
C645        C646   1.407       .  A
C645        H650   1.083       .  S
C646        C647   1.410       .  A
C647        C648   1.395       .  A
C647        F651   1.358       .  S
C648        H652   1.083       .  S
C653        C654   1.400       .  A
C653        C658   1.395       .  A
C653        H663   1.084       .  S
C654        C659   1.476       .  S
C654        C655   1.404       .  A
C655        C656   1.401       .  A
C655        F660   1.357       .  S
C656        C657   1.409       .  A
C656        H661   1.083       .  S
C657        C658   1.412       .  A
C658        F662   1.358       .  S
C659        C664   1.402       .  A
C659        C668   1.403       .  A
C664        C665   1.398       .  A
C664        F669   1.358       .  S
C665        C666   1.410       .  A
C665        H670   1.083       .  S
C666        C667   1.410       .  A
C667        C668   1.399       .  A
C667        F671   1.357       .  S
C668        H672   1.083       .  S
C673        C674   1.408       .  A
C673        C678   1.399       .  A
C673        H683   1.083       .  S
C674        C679   1.495   1_565  S
C674        C675   1.411       .  A
C675        C676   1.403       .  A
C675        F680   1.357       .  S
C676        C677   1.404       .  A
C676        H681   1.083       .  S
C677        C678   1.403       .  A
C678        F682   1.357       .  S
C679        C684   1.410       .  A
C679        C688   1.407       .  A
C684        C685   1.402       .  A
C684        F689   1.357       .  S
C685        C686   1.405       .  A
C685        H690   1.083       .  S
C686        C687   1.409       .  A
C687        C688   1.402       .  A
C687        F691   1.358       .  S
C688        H692   1.083       .  S
C693        C694   1.405       .  A
C693        C698   1.401       .  A
C693        H703   1.083       .  S
C694        C699   1.493       .  S
C694        C695   1.410       .  A
C695        C696   1.406       .  A
C695        F700   1.357       .  S
C696        C697   1.406       .  A
C696        H701   1.083       .  S
C697        C698   1.409       .  A
C698        F702   1.358       .  S
C699        C704   1.408       .  A
C699        C708   1.405       .  A
C704        C705   1.402       .  A
C704        F709   1.357       .  S
C705        C706   1.408       .  A
C705        H710   1.083       .  S
C706        C707   1.413       .  A
C707        C708   1.404       .  A
C707        F711   1.357       .  S
C708        H712   1.083       .  S
C713        C714   1.403       .  A
C713        C718   1.396       .  A
C713        H723   1.083       .  S
C714        C719   1.478       .  S
C714        C715   1.408       .  A
C715        C716   1.400       .  A
C715        F720   1.357       .  S
C716        C717   1.401       .  A
C716        H721   1.083       .  S
C717        C718   1.404       .  A
C718        F722   1.358       .  S
C719        C724   1.407       .  A
C719        C728   1.401       .  A
C724        C725   1.403       .  A
C724        F729   1.357       .  S
C725        C726   1.405       .  A
C725        H730   1.083       .  S
C726        C727   1.410       .  A
C727        C728   1.393       .  A
C727        F731   1.358       .  S
C728        H732   1.084       .  S
C733        C734   1.412       .  A
C733        C738   1.406       .  A
C733        H743   1.082       .  S
C734        C739   1.506   1_545  S
C734        C735   1.414       .  A
C735        C736   1.400       .  A
C735        F740   1.357   1_545  S
C736        C737   1.402       .  A
C736        H741   1.084       .  S
C737        C738   1.407       .  A
C738        F742   1.357       .  S
C739        C744   1.414       .  A
C739        C748   1.411       .  A
C744        C745   1.403       .  A
C744        F749   1.357       .  S
C745        C746   1.404       .  A
C745        H750   1.083       .  S
C746        C747   1.405       .  A
C747        C748   1.402       .  A
C747        F751   1.358       .  S
C748        H752   1.082       .  S
C753        C754   1.406       .  A
C753        C758   1.405       .  A
C753        H763   1.083       .  S
C754        C759   1.485       .  S
C754        C755   1.402       .  A
C755        C756   1.398       .  A
C755        F760   1.357       .  S
C756        C757   1.410       .  A
C756        H761   1.083       .  S
C757        C758   1.411       .  A
C758        F762   1.357       .  S
C759        C764   1.403       .  A
C759        C768   1.405       .  A
C764        C765   1.400       .  A
C764        F769   1.358       .  S
C765        C766   1.409       .  A
C765        H770   1.083       .  S
C766        C767   1.410       .  A
C767        C768   1.403       .  A
C767        F771   1.357       .  S
C768        H772   1.083       .  S
C773        C774   1.401       .  A
C773        C778   1.400       .  A
C773        H783   1.083       .  S
C774        C779   1.478       .  S
C774        C775   1.406       .  A
C775        C776   1.400       .  A
C775        F780   1.358       .  S
C776        C777   1.405       .  A
C776        H781   1.083       .  S
C777        C778   1.410       .  A
C778        F782   1.358       .  S
C779        C784   1.404       .  A
C779        C788   1.403       .  A
C784        C785   1.401       .  A
C784        F789   1.357       .  S
C785        C786   1.408       .  A
C785        H790   1.083       .  S
C786        C787   1.406       .  A
C787        C788   1.398       .  A
C787        F791   1.357       .  S
C788        H792   1.084       .  S
C793        C794   1.401       .  A
C793        C798   1.395       .  A
C793        H803   1.083       .  S
C794        C799   1.483       .  S
C794        C795   1.409       .  A
C795        C796   1.401       .  A
C795        F800   1.357       .  S
C796        C797   1.405       .  A
C796        H801   1.083       .  S
C797        C798   1.412       .  A
C798        F802   1.358       .  S
C799        C804   1.409       .  A
C799        C808   1.401       .  A
C804        C805   1.400       .  A
C804        F809   1.358       .  S
C805        C806   1.406       .  A
C805        H810   1.083       .  S
C806        C807   1.411       .  A
C807        C808   1.396       .  A
C807        F811   1.358       .  S
C808        H812   1.083       .  S
C813        C814   1.402       .  A
C813        C818   1.395       .  A
C813        H823   1.084       .  S
C814        C819   1.476       .  S
C814        C815   1.405       .  A
C815        C816   1.397       .  A
C815        F820   1.357       .  S
C816        C817   1.405   1_554  A
C816        H821   1.083   1_554  S
C817        C818   1.410   1_556  A
C818        F822   1.358   1_554  S
C819        C824   1.406       .  A
C819        C828   1.398       .  A
C824        C825   1.400       .  A
C824        F829   1.358       .  S
C825        C826   1.407       .  A
C825        H830   1.083       .  S
C826        C827   1.413       .  A
C827        C828   1.392       .  A
C827        F831   1.357       .  S
C828        H832   1.084       .  S
C833        C834   1.406       .  A
C833        C838   1.400       .  A
C833        H843   1.083       .  S
C834        C839   1.490   1_455  S
C834        C835   1.407       .  A
C835        C836   1.402       .  A
C835        F840   1.357       .  S
C836        C837   1.408       .  A
C836        H841   1.083       .  S
C837        C838   1.408       .  A
C838        F842   1.358       .  S
C839        C844   1.408       .  A
C839        C848   1.406       .  A
C844        C845   1.399       .  A
C844        F849   1.357   1_655  S
C845        C846   1.406       .  A
C845        H850   1.083       .  S
C846        C847   1.410       .  A
C847        C848   1.402       .  A
C847        F851   1.357       .  S
C848        H852   1.083       .  S
C853        C854   1.406       .  A
C853        C858   1.397       .  A
C853        H863   1.083       .  S
C854        C859   1.485   1_545  S
C854        C855   1.408       .  A
C855        C856   1.400       .  A
C855        F860   1.358       .  S
C856        C857   1.404       .  A
C856        H861   1.084       .  S
C857        C858   1.403       .  A
C858        F862   1.357       .  S
C859        C864   1.408       .  A
C859        C868   1.407       .  A
C864        C865   1.394       .  A
C864        F869   1.358       .  S
C865        C866   1.401       .  A
C865        H870   1.084       .  S
C866        C867   1.406       .  A
C867        C868   1.402       .  A
C867        F871   1.357       .  S
C868        H872   1.083       .  S
C873        C874   1.406       .  A
C873        C878   1.403       .  A
C873        H883   1.083       .  S
C874        C879   1.487       .  S
C874        C875   1.405       .  A
C875        C876   1.397       .  A
C875        F880   1.358       .  S
C876        C877   1.408       .  A
C876        H881   1.083       .  S
C877        C878   1.410       .  A
C878        F882   1.357       .  S
C879        C884   1.408       .  A
C879        C888   1.404       .  A
C884        C885   1.403       .  A
C884        F889   1.357       .  S
C885        C886   1.406       .  A
C885        H890   1.083       .  S
C886        C887   1.409       .  A
C887        C888   1.398       .  A
C887        F891   1.358       .  S
C888        H892   1.083       .  S
C893        C894   1.407       .  A
C893        C898   1.399       .  A
C893        H903   1.083       .  S
C894        C899   1.483       .  S
C894        C895   1.405       .  A
C895        C896   1.396       .  A
C895        F900   1.357       .  S
C896        C897   1.405       .  A
C896        H901   1.083       .  S
C897        C898   1.405       .  A
C898        F902   1.357       .  S
C899        C904   1.404       .  A
C899        C908   1.407       .  A
C904        C905   1.397       .  A
C904        F909   1.358       .  S
C905        C906   1.407       .  A
C905        H910   1.083       .  S
C906        C907   1.405       .  A
C907        C908   1.400       .  A
C907        F911   1.357       .  S
C908        H912   1.083       .  S
C913        C914   1.405       .  A
C913        C918   1.401       .  A
C913        H923   1.083       .  S
C914        C919   1.489   1_455  S
C914        C915   1.406       .  A
C915        C916   1.403       .  A
C915        F920   1.357       .  S
C916        C917   1.410       .  A
C916        H921   1.083       .  S
C917        C918   1.411       .  A
C918        F922   1.357       .  S
C919        C924   1.407       .  A
C919        C928   1.405       .  A
C924        C925   1.399       .  A
C924        F929   1.357   1_655  S
C925        C926   1.406       .  A
C925        H930   1.083       .  S
C926        C927   1.409       .  A
C927        C928   1.403       .  A
C927        F931   1.358       .  S
C928        H932   1.083       .  S
C933        C934   1.407       .  A
C933        C938   1.401       .  A
C933        H943   1.083       .  S
C934        C939   1.491   1_545  S
C934        C935   1.410       .  A
C935        C936   1.400       .  A
C935        F940   1.357       .  S
C936        C937   1.403       .  A
C936        H941   1.083       .  S
C937        C938   1.406       .  A
C938        F942   1.358       .  S
C939        C944   1.410       .  A
C939        C948   1.406       .  A
C944        C945   1.403       .  A
C944        F949   1.357       .  S
C945        C946   1.404       .  A
C945        H950   1.083       .  S
C946        C947   1.406       .  A
C947        C948   1.398       .  A
C947        F951   1.358       .  S
C948        H952   1.083       .  S
C953        C954   1.405       .  A
C953        C958   1.398       .  A
C953        H963   1.083       .  S
C954        C959   1.492       .  S
C954        C955   1.410       .  A
C955        C956   1.405       .  A
C955        F960   1.357       .  S
C956        C957   1.406       .  A
C956        H961   1.083       .  S
C957        C958   1.409       .  A
C958        F962   1.358       .  S
C959        C964   1.407       .  A
C959        C968   1.408       .  A
C964        C965   1.398       .  A
C964        F969   1.357       .  S
C965        C966   1.409       .  A
C965        H970   1.083       .  S
C966        C967   1.409       .  A
C967        C968   1.403       .  A
C967        F971   1.357       .  S
C968        H972   1.083       .  S
C973        C974   1.404       .  A
C973        C978   1.396       .  A
C973        H983   1.083       .  S
C974        C979   1.489       .  S
C974        C975   1.410       .  A
C975        C976   1.402       .  A
C975        F980   1.357       .  S
C976        C977   1.406       .  A
C976        H981   1.083       .  S
C977        C978   1.409       .  A
C978        F982   1.358       .  S
C979        C984   1.406       .  A
C979        C988   1.408       .  A
C984        C985   1.397       .  A
C984        F989   1.357       .  S
C985        C986   1.408       .  A
C985        H990   1.083       .  S
C986        C987   1.409       .  A
C987        C988   1.401       .  A
C987        F991   1.358       .  S
C988        H992   1.083       .  S
C993        C994   1.402       .  A
C993        C998   1.395   1_556  A
C993       H1003   1.083       .  S
C994        C999   1.485       .  S
C994        C995   1.409       .  A
C995        C996   1.400   1_556  A
C995       F1000   1.357       .  S
C996        C997   1.406       .  A
C996       H1001   1.083       .  S
C997        C998   1.410       .  A
C998       F1002   1.357       .  S
C999       C1004   1.406       .  A
C999       C1008   1.407       .  A
C1004      C1005   1.396       .  A
C1004      F1009   1.358       .  S
C1005      C1006   1.407       .  A
C1005      H1010   1.083       .  S
C1006      C1007   1.407       .  A
C1007      C1008   1.399       .  A
C1007      F1011   1.357       .  S
C1008      H1012   1.083       .  S
C1013      C1014   1.404       .  A
C1013      C1018   1.397       .  A
C1013      H1023   1.083       .  S
C1014      C1019   1.488       .  S
C1014      C1015   1.408       .  A
C1015      C1016   1.401       .  A
C1015      F1020   1.357       .  S
C1016      C1017   1.407       .  A
C1016      H1021   1.083       .  S
C1017      C1018   1.410       .  A
C1018      F1022   1.357       .  S
C1019      C1024   1.407       .  A
C1019      C1028   1.405       .  A
C1024      C1025   1.398       .  A
C1024      F1029   1.357       .  S
C1025      C1026   1.406       .  A
C1025      H1030   1.082       .  S
C1026      C1027   1.411       .  A
C1027      C1028   1.401       .  A
C1027      F1031   1.358       .  S
C1028      H1032   1.083       .  S
