geometry optimzed in LAMMPS
_audit_creation_date              2020-11-30 
_audit_creation_method            'lammps2cif' 
_symmetry_space_group_name_H-M    'P1' 
_symmetry_Int_Tables_number       1 
_symmetry_cell_setting            triclinic 
loop_ 
_symmetry_equiv_pos_as_xyz 
  x,y,z 
_cell_length_a                    80.7891145 
_cell_length_b                    80.59356064580119 
_cell_length_c                    56.04023378707764 
_cell_angle_alpha                 90.2015893530378 
_cell_angle_beta                  90.05824097805618 
_cell_angle_gamma                 121.75711755780416 
loop_ 
_atom_site_label 
_atom_site_type_symbol 
_atom_site_fract_x 
_atom_site_fract_y 
_atom_site_fract_z 
_atom_site_charge 
N1          N  0.01239250  0.41718381  0.42158856    -0.27200
N2          N  0.01296871  0.43228720  0.43175563    -0.35000
C3          C  0.99644874  0.42637934  0.44366465     0.01200
C4          C  0.98467954  0.40643525  0.44152618     0.07200
C5          C  0.99518251  0.40090771  0.42734303    -0.05900
H6          H  0.99283320  0.43611893  0.45226854     0.07800
H7          H  0.99014281  0.38644890  0.42043732     0.09000
Cu8        Cu  0.03407772  0.46084411  0.42621580     0.44200
Cu9        Cu  0.03490487  0.42200449  0.39796641     0.42000
Cu10       Cu  0.06411585  0.47485036  0.37708326     0.43900
N11         N  0.04841146  0.48892046  0.41416121    -0.34600
N12         N  0.05912271  0.49457780  0.39470200    -0.28800
C13         C  0.06365670  0.51282872  0.38927560    -0.04900
C14         C  0.05510962  0.51858657  0.40626302     0.07300
C15         C  0.04570493  0.50306749  0.42172701     0.01100
H16         H  0.07150926  0.52076648  0.37351779     0.08700
H17         H  0.03638187  0.50153474  0.43647877     0.07800
N18         N  0.06823869  0.45245420  0.36648562    -0.36000
N19         N  0.05882511  0.43415628  0.37417466    -0.28200
C20         C  0.06688408  0.42487153  0.36382357    -0.03400
C21         C  0.08181713  0.43783574  0.34881052     0.05200
C22         C  0.08210453  0.45506214  0.35103638     0.03300
H23         H  0.06197768  0.40969100  0.36667019     0.08400
H24         H  0.09201343  0.46876766  0.34235182     0.07200
N25         N  0.05386602  0.56276511  0.39708022    -0.27200
N26         N  0.04140172  0.55440324  0.41473502    -0.35000
C27         C  0.04063029  0.53799808  0.42100414     0.01200
C28         C  0.05313954  0.53573388  0.40649101     0.07200
C29         C  0.06137212  0.55174126  0.39144825    -0.05900
H30         H  0.03093073  0.52799930  0.43441587     0.07800
H31         H  0.07161064  0.55487817  0.37717526     0.09000
Cu32       Cu  0.02395086  0.56409150  0.42719856     0.44200
Cu33       Cu  0.05854163  0.58840693  0.38233549     0.42000
Cu34       Cu  0.02704711  0.60691020  0.40443718     0.43900
N35         N  0.00319250  0.57100649  0.43382128    -0.34600
N36         N  0.00368335  0.58661363  0.42562704    -0.28800
C37         C  0.98665529  0.58516092  0.43123063    -0.04900
C38         C  0.97506689  0.56771076  0.44333500     0.07300
C39         C  0.98607605  0.55923312  0.44445806     0.01100
H40         H  0.98247977  0.59524860  0.42543404     0.08700
H41         H  0.98151395  0.54491176  0.45135158     0.07800
N42         N  0.05154183  0.62218113  0.38226032    -0.36000
N43         N  0.06201500  0.61511726  0.37403477    -0.28200
C44         C  0.07599737  0.62832534  0.35963037    -0.03400
C45         C  0.07456276  0.64464396  0.35875531     0.05200
C46         C  0.05890766  0.64027260  0.37335022     0.03300
H47         H  0.08656554  0.62620997  0.35057005     0.08400
H48         H  0.05294252  0.64932578  0.37670649     0.07200
N49         N  0.92729020  0.54682714  0.47087102    -0.27200
N50         N  0.92553787  0.53179355  0.45895664    -0.35000
C51         C  0.94148900  0.53769340  0.44576590     0.01200
C52         C  0.95414871  0.55744953  0.44921820     0.07200
C53         C  0.94468542  0.56287837  0.46529481    -0.05900
H54         H  0.94454078  0.52788079  0.43625629     0.07800
H55         H  0.95080473  0.57689713  0.47407706     0.09000
Cu56       Cu  0.90518980  0.50292453  0.46588733     0.44200
Cu57       Cu  0.90686434  0.54272639  0.49712597     0.42000
Cu58       Cu  0.87774149  0.49089256  0.51808730     0.43900
N59         N  0.89269248  0.47566332  0.48107414    -0.34600
N60         N  0.88298764  0.47105832  0.50133346    -0.28800
C61         C  0.87959094  0.45358789  0.50865799    -0.04900
C62         C  0.88774020  0.44708527  0.49211846     0.07300
C63         C  0.89580746  0.46144558  0.47488623     0.01100
H64         H  0.87270895  0.44670539  0.52532708     0.08700
H65         H  0.90449151  0.46219477  0.45977635     0.07800
N66         N  0.87441979  0.51348057  0.52990131    -0.36000
N67         N  0.88419555  0.53178668  0.52233359    -0.28200
C68         C  0.87723146  0.54169590  0.53366238    -0.03400
C69         C  0.86266495  0.52909685  0.54924876     0.05200
C70         C  0.86133174  0.51140741  0.54626745     0.03300
H71         H  0.88258298  0.55699829  0.53105362     0.08400
H72         H  0.85131157  0.49783019  0.55509817     0.07200
N73         N  0.93887363  0.37894487  0.47363019    -0.27200
N74         N  0.93670771  0.39202409  0.46228677    -0.35000
C75         C  0.95173651  0.40217365  0.44744231     0.01200
C76         C  0.96412368  0.39524538  0.44915339     0.07200
C77         C  0.95554490  0.38049574  0.46608213    -0.05900
H78         H  0.95445104  0.41498734  0.43779095     0.07800
H79         H  0.96188697  0.37285498  0.47396852     0.09000
Cu80       Cu  0.91639821  0.39917080  0.47130373     0.44200
Cu81       Cu  0.91989057  0.36238027  0.50126981     0.42000
Cu82       Cu  0.88914005  0.38125178  0.52448379     0.43900
N83         N  0.90090451  0.41056708  0.48572356    -0.34600
N84         N  0.89128216  0.40469549  0.50604194    -0.28800
C85         C  0.88444248  0.41635888  0.51144537    -0.04900
C86         C  0.89013939  0.43017878  0.49353362     0.07300
C87         C  0.90048943  0.42596984  0.47759487     0.01100
H88         H  0.87640121  0.41518187  0.52742983     0.08700
H89         H  0.90787924  0.43397437  0.46166577     0.07800
N90         N  0.88762938  0.35584139  0.53568493    -0.36000
N91         N  0.89804936  0.34880195  0.52720266    -0.28200
C92         C  0.89210202  0.33155428  0.53781515    -0.03400
C93         C  0.87736023  0.32760119  0.55379037     0.05200
C94         C  0.87503064  0.34337988  0.55195773     0.03300
H95         H  0.89826642  0.32269768  0.53434551     0.08400
H96         H  0.86461146  0.34548667  0.56141922     0.07200
C97         C  0.81403576  0.54188216  0.61365560     0.80300
N98         N  0.81463615  0.53855101  0.63743234    -0.78000
C99         C  0.80259700  0.54001271  0.65300752     0.82800
N100        N  0.79016775  0.54515398  0.64475999    -0.77900
C101        C  0.78947026  0.54875275  0.62134661     0.82900
N102        N  0.80139623  0.54709523  0.60565894    -0.79600
C103        C  0.70064786  0.56402016  0.61848677     0.80300
N104        N  0.70113031  0.57005680  0.64137309    -0.78000
C105        C  0.71658361  0.57484779  0.65579270     0.82800
N106        N  0.73184941  0.57424097  0.64682465    -0.77900
C107        C  0.73135889  0.56766585  0.62435082     0.82900
N108        N  0.71546577  0.56207799  0.61034972    -0.79600
C109        C  0.81536815  0.54043806  0.79386001     0.80300
N110        N  0.80287628  0.54558517  0.80265399    -0.78000
C111        C  0.78972180  0.54604055  0.78789129     0.82800
N112        N  0.78928401  0.54159103  0.76451954    -0.77900
C113        C  0.80175510  0.53683342  0.75536714     0.82900
N114        N  0.81495805  0.53648308  0.77006732    -0.79600
C115        C  0.70268745  0.56412451  0.79568402     0.80300
N116        N  0.70277439  0.57028038  0.77302068    -0.78000
C117        C  0.71797393  0.57517741  0.75820150     0.82800
N118        N  0.73316248  0.57408259  0.76636361    -0.77900
C119        C  0.73300189  0.56714888  0.78844524     0.82900
N120        N  0.71749026  0.56179948  0.80301721    -0.79600
C121        C  0.25167320  0.83551206  0.30256398     0.80300
N122        N  0.25459129  0.83990582  0.27881476    -0.78000
C123        C  0.23918275  0.83225279  0.26353198     0.82800
N124        N  0.22115830  0.81960910  0.27199855    -0.77900
C125        C  0.21803861  0.81427408  0.29519187     0.82900
N126        N  0.23336859  0.82231728  0.31064964    -0.79600
C127        C  0.12017704  0.71250186  0.29951107     0.80300
N128        N  0.13438128  0.73019637  0.30836686    -0.78000
C129        C  0.14293714  0.74608725  0.29387097     0.82800
N130        N  0.13709767  0.74405100  0.27081847    -0.77900
C131        C  0.12355823  0.72650936  0.26152605     0.82900
N132        N  0.11522842  0.71066804  0.27596173    -0.79600
C133        C  0.25303211  0.83679104  0.12260343     0.80300
N134        N  0.23527704  0.82270686  0.11388607    -0.78000
C135        C  0.21960372  0.81392123  0.12867276     0.82800
N136        N  0.22181053  0.81933281  0.15196127    -0.77900
C137        C  0.23955593  0.83258035  0.16108145     0.82900
N138        N  0.25517944  0.84112782  0.14635148    -0.79600
C139        C  0.12206863  0.70980888  0.12233107     0.80300
N140        N  0.13811584  0.72644428  0.11404831    -0.78000
C141        C  0.14678203  0.74284818  0.12789038     0.82800
N142        N  0.13984593  0.74218549  0.15005772    -0.77900
C143        C  0.12479326  0.72548101  0.15909790     0.82900
N144        N  0.11575885  0.70931253  0.14502430    -0.79600
N145        N  0.41179901  0.02663302  0.48446402    -0.27200
N146        N  0.42578989  0.02684855  0.47197779    -0.35000
C147        C  0.41843041  0.01016179  0.45960811     0.01200
C148        C  0.39878037  0.99857195  0.46421351     0.07200
C149        C  0.39498583  0.00945574  0.48017179    -0.05900
H150        H  0.42720400  0.00583937  0.45000238     0.07800
H151        H  0.38154926  0.00445106  0.48974305     0.09000
Cu152      Cu  0.45521866  0.04620860  0.47689508     0.44200
Cu153      Cu  0.41818984  0.04870632  0.50975094     0.37200
Cu154      Cu  0.47115673  0.07761774  0.52606060     0.43900
N155        N  0.48363525  0.06001757  0.48883614    -0.34600
N156        N  0.48982842  0.07145077  0.50784200    -0.28800
C157        C  0.50834367  0.07659330  0.51255693    -0.04900
C158        C  0.51389331  0.06780605  0.49564523     0.07300
C159        C  0.49782497  0.05745885  0.48093663     0.01100
H160        H  0.51683708  0.08542977  0.52760961     0.08700
H161        H  0.49622059  0.04804263  0.46615657     0.07800
N162        N  0.44994502  0.08257613  0.53924807    -0.36000
N163        N  0.43119631  0.07266028  0.53360899    -0.28200
C164        C  0.42251264  0.08080113  0.54521237    -0.03400
C165        C  0.43637910  0.09653898  0.55886385     0.05200
C166        C  0.45356357  0.09710241  0.55437769     0.03300
H167        H  0.40718200  0.07560577  0.54379493     0.08400
H168        H  0.46795837  0.10764932  0.56093715     0.07200
N169        N  0.58260885  0.01814109  0.48267332    -0.27200
N170        N  0.56928759  0.01921522  0.47022776    -0.35000
C171        C  0.55817537  0.00246057  0.45822925     0.01200
C172        C  0.56471326  0.99006086  0.46290274     0.07200
C173        C  0.58021136  0.00041739  0.47866760    -0.05900
H174        H  0.54513502  0.99888660  0.44842144     0.07800
H175        H  0.58802656  0.99488109  0.48803304     0.09000
Cu176      Cu  0.56307322  0.04091111  0.47385040     0.44200
Cu177      Cu  0.60115962  0.04038946  0.50681287     0.42000
Cu178      Cu  0.58591273  0.07589299  0.51960215     0.43900
N179        N  0.55228505  0.05770979  0.48572280    -0.34600
N180        N  0.56010791  0.07022052  0.50361726    -0.28800
C181        C  0.54809518  0.07649478  0.50954283    -0.04900
C182        C  0.53196834  0.06741245  0.49455229     0.07300
C183        C  0.53524531  0.05571482  0.47964728     0.01100
H184        H  0.55050359  0.08623758  0.52427500     0.08700
H185        H  0.52540002  0.04553061  0.46633522     0.07800
N186        N  0.61146735  0.07836431  0.53209709    -0.36000
N187        N  0.61679356  0.06557712  0.52830281    -0.28200
C188        C  0.63376171  0.07180019  0.53989626    -0.03400
C189        C  0.63952431  0.08944342  0.55113418     0.05200
C190        C  0.62498361  0.09305362  0.54576832     0.03300
H191        H  0.64144970  0.06415099  0.53995968     0.08400
H192        H  0.62400482  0.10525323  0.55187152     0.07200
N193        N  0.54005997  0.94066146  0.43836200    -0.27200
N194        N  0.52618421  0.94035167  0.45118101    -0.35000
C195        C  0.53354235  0.95716919  0.46330276     0.01200
C196        C  0.55313081  0.96882946  0.45831489     0.07200
C197        C  0.55682946  0.95795827  0.44223373    -0.05900
H198        H  0.52485462  0.96134631  0.47337749     0.07800
H199        H  0.57020981  0.96292962  0.43254345     0.09000
Cu200      Cu  0.49694083  0.91966982  0.44769276     0.44200
Cu201      Cu  0.53335468  0.91805268  0.41390416     0.42000
Cu202      Cu  0.48005073  0.88583994  0.39993960     0.43900
N203        N  0.46821062  0.90436273  0.43697476    -0.34600
N204        N  0.46171121  0.89227199  0.41856341    -0.28800
C205        C  0.44330716  0.88740361  0.41368897    -0.04900
C206        C  0.43818355  0.89707330  0.42981862     0.07300
C207        C  0.45431145  0.90753862  0.44435107     0.01100
H208        H  0.43479318  0.87853241  0.39866841     0.08700
H209        H  0.45639595  0.91792122  0.45811396     0.07800
N210        N  0.50205053  0.88242421  0.38589456    -0.36000
N211        N  0.52083506  0.89341537  0.39125086    -0.28200
C212        C  0.53039234  0.88626292  0.37961659    -0.03400
C213        C  0.51710840  0.87017786  0.36617032     0.05200
C214        C  0.49933562  0.86829639  0.37052555     0.03300
H215        H  0.54595450  0.89253893  0.38055461     0.08400
H216        H  0.48535085  0.85723782  0.36334042     0.07200
N217        N  0.37002199  0.94908697  0.44036308    -0.27200
N218        N  0.38391263  0.94858276  0.45222572    -0.35000
C219        C  0.39471276  0.96538400  0.46423804     0.01200
C220        C  0.38746927  0.97727011  0.46005441     0.07200
C221        C  0.37179235  0.96650198  0.44467126    -0.05900
H222        H  0.40810248  0.96945033  0.47352699     0.07800
H223        H  0.36351199  0.97164071  0.43558161     0.09000
Cu224      Cu  0.39142207  0.92784392  0.44760819     0.44200
Cu225      Cu  0.35184679  0.92690503  0.41602612     0.42000
Cu226      Cu  0.37068226  0.89518888  0.39911926     0.43900
N227        N  0.40198125  0.91066773  0.43613577    -0.34600
N228        N  0.39474151  0.89887208  0.41750432    -0.28800
C229        C  0.40592679  0.89139761  0.41286600    -0.04900
C230        C  0.42096723  0.89896199  0.42941769     0.07300
C231        C  0.41792180  0.91106341  0.44390736     0.01100
H232        H  0.40374819  0.88186079  0.39798314     0.08700
H233        H  0.42717831  0.92030017  0.45827177     0.07800
N234        N  0.34529519  0.89237347  0.38579179    -0.36000
N235        N  0.33804113  0.90313031  0.39215550    -0.28200
C236        C  0.32093285  0.89629241  0.38064888    -0.03400
C237        C  0.31741174  0.88069903  0.36618311     0.05200
C238        C  0.33319357  0.87869382  0.37002973     0.03300
H239        H  0.31184827  0.90238346  0.38242841     0.08400
H240        H  0.33555751  0.86777757  0.36239497     0.07200
N241        N  0.40841289  0.02479470  0.93835052    -0.27200
N242        N  0.42288372  0.02560154  0.95044913    -0.35000
C243        C  0.41629496  0.00890661  0.96234996     0.01200
C244        C  0.39668175  0.99675659  0.95781731     0.07200
C245        C  0.39205032  0.00724649  0.94243131    -0.05900
H246        H  0.42554034  0.00515539  0.97188887     0.07800
H247        H  0.37831982  0.00190240  0.93332417     0.09000
Cu248      Cu  0.45199579  0.04624601  0.94599208     0.44200
Cu249      Cu  0.41347099  0.04701004  0.91438741     0.42000
Cu250      Cu  0.46636640  0.07971486  0.89971176     0.43900
N251        N  0.48012656  0.06108347  0.93326259    -0.34600
N252        N  0.48577702  0.07344840  0.91534128    -0.28800
C253        C  0.50390028  0.07842185  0.90877687    -0.04900
C254        C  0.50970680  0.06843834  0.92325222     0.07300
C255        C  0.49426467  0.05768379  0.93857013     0.01100
H256        H  0.51166161  0.08750057  0.89365283     0.08700
H257        H  0.49285030  0.04715397  0.95161497     0.07800
N258        N  0.44396815  0.08291161  0.88714173    -0.36000
N259        N  0.42519270  0.07165283  0.89216409    -0.28200
C260        C  0.41545230  0.07852878  0.88031705    -0.03400
C261        C  0.42871435  0.09474059  0.86714918     0.05200
C262        C  0.44656059  0.09697264  0.87205322     0.03300
H263        H  0.39981987  0.07184945  0.88071347     0.08400
H264        H  0.46057635  0.10806635  0.86507951     0.07200
N265        N  0.57744068  0.01551139  0.92460982    -0.27200
N266        N  0.56249023  0.01501766  0.93490199    -0.35000
C267        C  0.55193909  0.99827763  0.94681206     0.01200
C268        C  0.56054254  0.98745804  0.94437881     0.07200
C269        C  0.57678247  0.99878892  0.93008303    -0.05900
H270        H  0.53834865  0.99386564  0.95573113     0.07800
H271        H  0.58659402  0.99467282  0.92304298     0.09000
Cu272      Cu  0.55511326  0.03563351  0.93063485     0.44200
Cu273      Cu  0.59594995  0.03906475  0.90224834     0.42000
Cu274      Cu  0.58097943  0.07637143  0.89407338     0.43900
N275        N  0.54546390  0.05416245  0.92373136    -0.34600
N276        N  0.55449119  0.06929967  0.90936999    -0.28800
C277        C  0.54346419  0.07728487  0.90703374    -0.04900
C278        C  0.52684954  0.06657232  0.92086357     0.07300
C279        C  0.52873393  0.05211166  0.93115169     0.01100
H280        H  0.54707259  0.08966229  0.89586783     0.08700
H281        H  0.51833839  0.04040842  0.94248067     0.07800
N282        N  0.60633543  0.07863150  0.88100170    -0.36000
N283        N  0.61120491  0.06530248  0.88278112    -0.28200
C284        C  0.62777181  0.07153467  0.87039782    -0.03400
C285        C  0.63375748  0.08967141  0.86076502     0.05200
C286        C  0.61988455  0.09370850  0.86798773     0.03300
H287        H  0.63498240  0.06347571  0.86860079     0.08400
H288        H  0.61927996  0.10639500  0.86335913     0.07200
N289        N  0.54199227  0.94125863  0.97533264    -0.27200
N290        N  0.52626024  0.93881936  0.96467939    -0.35000
C291        C  0.53120622  0.95390348  0.95021086     0.01200
C292        C  0.55106735  0.96677253  0.95147496     0.07200
C293        C  0.55755006  0.95830678  0.96768020    -0.05900
H294        H  0.52077219  0.95648294  0.94156066     0.07800
H295        H  0.57202420  0.96503191  0.97523420     0.09000
Cu296      Cu  0.49818138  0.91960333  0.97565894     0.44200
Cu297      Cu  0.53929888  0.92233039  0.00299663     0.42000
Cu298      Cu  0.49114831  0.90080901  0.03358279     0.43900
N299        N  0.47277757  0.91023992  0.99418558    -0.34600
N300        N  0.47016038  0.90403404  0.01642204    -0.28800
C301        C  0.45319614  0.90142815  0.02442749    -0.04900
C302        C  0.44498956  0.90647577  0.00624907     0.07300
C303        C  0.45781616  0.91193776  0.98741137     0.01100
H304        H  0.44766613  0.89695736  0.04233001     0.08700
H305        H  0.45684172  0.91761124  0.97034732     0.07800
N306        N  0.51261346  0.89484371  0.04200158    -0.36000
N307        N  0.52928150  0.90144397  0.03054100    -0.28200
C308        C  0.53823583  0.89265188  0.03966687    -0.03400
C309        C  0.52679645  0.88020742  0.05785961     0.05200
C310        C  0.51078629  0.88212723  0.05880768     0.03300
H311        H  0.55218190  0.89534576  0.03375125     0.08400
H312        H  0.49836076  0.87438476  0.07048733     0.07200
N313        N  0.36956268  0.94877898  0.98473051    -0.27200
N314        N  0.38354434  0.94810318  0.97341975    -0.35000
C315        C  0.39358573  0.96410575  0.95998300     0.01200
C316        C  0.38575149  0.97564331  0.96274074     0.07200
C317        C  0.37048562  0.96547826  0.97866369    -0.05900
H318        H  0.40709905  0.96819806  0.95107280     0.07800
H319        H  0.36216586  0.97082951  0.98719796     0.09000
Cu320      Cu  0.39285272  0.92933392  0.98180615     0.44200
Cu321      Cu  0.35304124  0.92850982  0.01127349     0.42000
Cu322      Cu  0.37636791  0.90293728  0.03585610     0.43900
N323        N  0.40626464  0.91620586  0.99750993    -0.34600
N324        N  0.40088520  0.90715063  0.01823560    -0.28800
C325        C  0.41358955  0.90188936  0.02463276    -0.04900
C326        C  0.42756020  0.90793758  0.00693596     0.07300
C327        C  0.42240433  0.91691445  0.99005664     0.01100
H328        H  0.41282359  0.89443776  0.04099674     0.08700
H329        H  0.43018847  0.92407894  0.97391084     0.07800
N330        N  0.34952840  0.89809312  0.04645310    -0.36000
N331        N  0.34078844  0.90667445  0.03732407    -0.28200
C332        C  0.32300900  0.89874427  0.04725241    -0.03400
C333        C  0.32052616  0.88466102  0.06351878     0.05200
C334        C  0.33766488  0.88470470  0.06246126     0.03300
H335        H  0.31266100  0.90293493  0.04295185     0.08400
H336        H  0.34106409  0.87521414  0.07196502     0.07200
C337        C  0.83477233  0.26189742  0.61753095     0.80300
N338        N  0.82053169  0.24395406  0.60939286    -0.78000
C339        C  0.81166523  0.22861705  0.62471533     0.82800
N340        N  0.81727916  0.23137297  0.64792098    -0.77900
C341        C  0.83074081  0.24925712  0.65648623     0.82900
N342        N  0.83928856  0.26459254  0.64123757    -0.79600
C343        C  0.70378113  0.13555898  0.61617794     0.80300
N344        N  0.70066240  0.13049405  0.63969238    -0.78000
C345        C  0.71527210  0.14005476  0.65588112     0.82800
N346        N  0.73304694  0.15434833  0.64826067    -0.77900
C347        C  0.73631163  0.15997626  0.62513415     0.82900
N348        N  0.72148401  0.15080753  0.60902856    -0.79600
C349        C  0.82776444  0.26691316  0.79581248     0.80300
N350        N  0.83427857  0.26822976  0.77304616    -0.78000
C351        C  0.82513178  0.25264041  0.75806836     0.82800
N352        N  0.80974514  0.23569936  0.76614738    -0.77900
C353        C  0.80263552  0.23434805  0.78842900     0.82900
N354        N  0.81150803  0.25011713  0.80322540    -0.79600
C355        C  0.69775487  0.13725960  0.79638866     0.80300
N356        N  0.71462131  0.15343058  0.80424652    -0.78000
C357        C  0.72989552  0.16326363  0.78906473     0.82800
N358        N  0.72799557  0.15726713  0.76614667    -0.77900
C359        C  0.71136103  0.14161338  0.75785741     0.82900
N360        N  0.69613335  0.13157347  0.77302545    -0.79600
N361        N  0.02254286  0.42432399  0.97139375    -0.27200
N362        N  0.02383226  0.43926928  0.95997436    -0.35000
C363        C  0.00744125  0.43327411  0.94757722     0.01200
C364        C  0.99503557  0.41352700  0.95103655     0.07200
C365        C  0.00503752  0.40822885  0.96632091    -0.05900
H366        H  0.00389193  0.44301417  0.93893048     0.07800
H367        H  0.99921756  0.39430009  0.97507722     0.09000
Cu368      Cu  0.04407952  0.46800140  0.96736859     0.44200
Cu369      Cu  0.04362198  0.42862749  0.99665940     0.42000
Cu370      Cu  0.07473513  0.48094823  0.01681487     0.43900
N371        N  0.05607265  0.49485121  0.98350115    -0.34600
N372        N  0.06717161  0.49997502  0.00271737    -0.28800
C373        C  0.06986144  0.51695910  0.01116688    -0.04900
C374        C  0.05968386  0.52245995  0.99650140     0.07300
C375        C  0.05124308  0.50810994  0.97918525     0.01100
H376        H  0.07754632  0.52405698  0.02747569     0.08700
H377        H  0.04124559  0.50667362  0.96531163     0.07800
N378        N  0.07838984  0.45813709  0.02677639    -0.36000
N379        N  0.06745817  0.43961439  0.02007524    -0.28200
C380        C  0.07423359  0.42937050  0.03082872    -0.03400
C381        C  0.09016266  0.44199703  0.04497310     0.05200
C382        C  0.09227284  0.46006133  0.04177299     0.03300
H383        H  0.06766335  0.41378104  0.02889146     0.08400
H384        H  0.10314149  0.47378025  0.04982212     0.07200
N385        N  0.00528129  0.58930975  0.98934502    -0.27200
N386        N  0.00492845  0.57441876  0.97883570    -0.35000
C387        C  0.98840414  0.56412565  0.96625437     0.01200
C388        C  0.97766621  0.57285383  0.96858218     0.07200
C389        C  0.98876792  0.58882354  0.98347895    -0.05900
H390        H  0.98378664  0.55032332  0.95756215     0.07800
H391        H  0.98441370  0.59830585  0.99108976     0.09000
Cu392      Cu  0.02468259  0.56600460  0.98516236     0.44200
Cu393      Cu  0.02740432  0.60717786  0.01374901     0.42000
Cu394      Cu  0.06038633  0.58916281  0.03000706     0.43900
N395        N  0.04249866  0.55604918  0.99556771    -0.34600
N396        N  0.05552574  0.56411691  0.01284984    -0.28800
C397        C  0.06399710  0.55363439  0.01602844    -0.04900
C398        C  0.05587054  0.53832200  0.99975236     0.07300
C399        C  0.04232967  0.54037280  0.98713838     0.01100
H400        H  0.07515032  0.55689018  0.02915681     0.08700
H401        H  0.03271921  0.53093888  0.97314399     0.07800
N402        N  0.06325306  0.61495080  0.04209080    -0.36000
N403        N  0.05153991  0.62132540  0.03684765    -0.28200
C404        C  0.05807999  0.63844781  0.04827365    -0.03400
C405        C  0.07473379  0.64311618  0.06105037     0.05200
C406        C  0.07755811  0.62791313  0.05659246     0.03300
H407        H  0.05139229  0.64702916  0.04701472     0.08400
H408        H  0.08905410  0.62622983  0.06363812     0.07200
N409        N  0.93004426  0.55225660  0.94057161    -0.27200
N410        N  0.92788471  0.53751022  0.95337441    -0.35000
C411        C  0.94371792  0.54349266  0.96692280     0.01200
C412        C  0.95674403  0.56302879  0.96280290     0.07200
C413        C  0.94763482  0.56821806  0.94588798    -0.05900
H414        H  0.94652612  0.53375783  0.97694646     0.07800
H415        H  0.95414528  0.58188704  0.93635256     0.09000
Cu416      Cu  0.90766882  0.50865107  0.94659613     0.44200
Cu417      Cu  0.91006087  0.54752623  0.91327623     0.42000
Cu418      Cu  0.88359941  0.49583261  0.89139367     0.43900
N419        N  0.89660865  0.48143161  0.93179727    -0.34600
N420        N  0.88793408  0.47639822  0.91076107    -0.28800
C421        C  0.88459030  0.45864182  0.90480806    -0.04900
C422        C  0.89184698  0.45252712  0.92296587     0.07300
C423        C  0.89934825  0.46735973  0.93969816     0.01100
H424        H  0.87840136  0.45128507  0.88802444     0.08700
H425        H  0.90709612  0.46832175  0.95590898     0.07800
N426        N  0.87976955  0.51781085  0.87836819    -0.36000
N427        N  0.88843083  0.53598146  0.88650532    -0.28200
C428        C  0.88106618  0.54530385  0.87473742    -0.03400
C429        C  0.86730533  0.53247540  0.85830406     0.05200
C430        C  0.86702518  0.51528061  0.86116515     0.03300
H431        H  0.88555596  0.56036812  0.87778540     0.08400
H432        H  0.85774594  0.50162538  0.85187183     0.07200
N433        N  0.94521538  0.38624840  0.92876748    -0.27200
N434        N  0.94528659  0.40015298  0.94146118    -0.35000
C435        C  0.96251801  0.41081332  0.95252666     0.01200
C436        C  0.97391315  0.40327712  0.94688890     0.07200
C437        C  0.96255494  0.38771865  0.93164832    -0.05900
H438        H  0.96696715  0.42400993  0.96261256     0.07800
H439        H  0.96706349  0.37911113  0.92198768     0.09000
Cu440      Cu  0.92398842  0.40705763  0.94011972     0.44200
Cu441      Cu  0.92216710  0.36791234  0.90600271     0.42000
Cu442      Cu  0.88534736  0.38150632  0.89882361     0.43900
N443        N  0.90556416  0.41653945  0.93059152    -0.34600
N444        N  0.89170843  0.40757976  0.91437089    -0.28800
C445        C  0.88424439  0.41870419  0.90939395    -0.04900
C446        C  0.89380178  0.43537059  0.92339351     0.07300
C447        C  0.90714637  0.43345410  0.93667904     0.01100
H448        H  0.87311125  0.41517745  0.89612972     0.08700
H449        H  0.91800714  0.44409454  0.94880344     0.07800
N450        N  0.88330946  0.35694201  0.88386538    -0.36000
N451        N  0.89673420  0.35230675  0.88565779    -0.28200
C452        C  0.89111701  0.33618927  0.87243335    -0.03400
C453        C  0.87327851  0.33036539  0.86196897     0.05200
C454        C  0.86877189  0.34381694  0.86977231     0.03300
H455        H  0.89938198  0.32919898  0.87071491     0.08400
H456        H  0.85613196  0.34441730  0.86494364     0.07200
N457        N  0.54269226  0.59705498  0.44415542    -0.27200
N458        N  0.52807173  0.58235063  0.45565628    -0.35000
C459        C  0.53471052  0.57286738  0.46813028     0.01200
C460        C  0.55450327  0.58183953  0.46458561     0.07200
C461        C  0.55915316  0.59718484  0.44918815    -0.05900
H462        H  0.52541775  0.55906446  0.47697402     0.07800
H463        H  0.57294261  0.60634064  0.44032592     0.09000
Cu464      Cu  0.49893866  0.57130303  0.44883217     0.44200
Cu465      Cu  0.53788706  0.61294599  0.41836040     0.42000
Cu466      Cu  0.48682644  0.58710857  0.39654901     0.43900
N467        N  0.47131453  0.55622698  0.43408087    -0.34600
N468        N  0.46671015  0.56172649  0.41427304    -0.28800
C469        C  0.44845661  0.54783691  0.40775775    -0.04900
C470        C  0.44137654  0.53283126  0.42423610     0.07300
C471        C  0.45627304  0.53870912  0.44067108     0.01100
H472        H  0.44126142  0.54821948  0.39167196     0.08700
H473        H  0.45655550  0.53046279  0.45567617     0.07800
N474        N  0.50933376  0.61349504  0.38314325    -0.36000
N475        N  0.52742081  0.62322984  0.39142764    -0.28200
C476        C  0.53749709  0.64028613  0.37961354    -0.03400
C477        C  0.52528269  0.64121719  0.36292134     0.05200
C478        C  0.50757602  0.62393326  0.36571583     0.03300
H479        H  0.55261912  0.65122663  0.38292668     0.08400
H480        H  0.49413516  0.61955502  0.35642827     0.07200
N481        N  0.36719038  0.41071808  0.43072804    -0.27200
N482        N  0.38018856  0.42523180  0.44430533    -0.35000
C483        C  0.39017873  0.41928788  0.45701052     0.01200
C484        C  0.38328545  0.40001078  0.45158856     0.07200
C485        C  0.36871063  0.39498415  0.43467648    -0.05900
H486        H  0.40284825  0.42887993  0.46777962     0.07800
H487        H  0.36102098  0.38151414  0.42456783     0.09000
Cu488      Cu  0.38810327  0.45398616  0.44119320     0.44200
Cu489      Cu  0.35049589  0.41509235  0.40532444     0.42000
Cu490      Cu  0.36943457  0.46766554  0.39369606     0.43900
N491        N  0.40118749  0.48254371  0.43006729    -0.34600
N492        N  0.39492406  0.48783571  0.41157038    -0.28800
C493        C  0.40792105  0.50679928  0.40685592    -0.04900
C494        C  0.42301773  0.51363569  0.42331532     0.07300
C495        C  0.41818025  0.49783752  0.43773852     0.01100
H496        H  0.40677818  0.51480016  0.39215645     0.08700
H497        H  0.42684215  0.49718126  0.45199978     0.07800
N498        N  0.34356907  0.44440857  0.37972132    -0.36000
N499        N  0.33694693  0.42562602  0.38293097    -0.28200
C500        C  0.32020092  0.41505334  0.37038981    -0.03400
C501        C  0.31597464  0.42777855  0.35924310     0.05200
C502        C  0.33109680  0.44618924  0.36562036     0.03300
H503        H  0.31155804  0.39929101  0.36976081     0.08400
H504        H  0.33307727  0.45995903  0.36005667     0.07200
N505        N  0.40573501  0.37559893  0.47891049    -0.27200
N506        N  0.42047383  0.39007722  0.46728443    -0.35000
C507        C  0.41398243  0.39926785  0.45391217     0.01200
C508        C  0.39412361  0.39032259  0.45688893     0.07200
C509        C  0.38933045  0.37534992  0.47303509    -0.05900
H510        H  0.42338370  0.41285222  0.44468737     0.07800
H511        H  0.37539609  0.36628637  0.48162069     0.09000
Cu512      Cu  0.44951291  0.40091039  0.47445385     0.44200
Cu513      Cu  0.41038122  0.35965031  0.50506061     0.42000
Cu514      Cu  0.46296664  0.38232187  0.52185690     0.43900
N515        N  0.47739636  0.41560837  0.48839287    -0.34600
N516        N  0.48266354  0.40909625  0.50664002    -0.28800
C517        C  0.50090116  0.42296147  0.51335979    -0.04900
C518        C  0.50725241  0.43896284  0.49854323     0.07300
C519        C  0.49195709  0.43368710  0.48294466     0.01100
H520        H  0.50858910  0.42180370  0.52844578     0.08700
H521        H  0.49105700  0.44266800  0.46934925     0.07800
N522        N  0.44014724  0.35585705  0.53452149    -0.36000
N523        N  0.42141527  0.34778127  0.52936562    -0.28200
C524        C  0.41127654  0.33093428  0.54169867    -0.03400
C525        C  0.42427131  0.32820623  0.55485547     0.05200
C526        C  0.44235707  0.34436684  0.54983700     0.03300
H527        H  0.39565027  0.32121695  0.54084100     0.08400
H528        H  0.45621349  0.34779732  0.55712628     0.07200
N529        N  0.58166170  0.56147189  0.48933831    -0.27200
N530        N  0.56810886  0.54672275  0.47657242    -0.35000
C531        C  0.55802505  0.55264831  0.46405174     0.01200
C532        C  0.56541117  0.57212537  0.46891128     0.07200
C533        C  0.58043451  0.57732025  0.48513202    -0.05900
H534        H  0.54487534  0.54293451  0.45411125     0.07800
H535        H  0.58850164  0.59094786  0.49487186     0.09000
Cu536      Cu  0.55961481  0.51793622  0.48139587     0.44200
Cu537      Cu  0.59834628  0.55721660  0.51450370     0.42000
Cu538      Cu  0.57909004  0.50478557  0.52887765     0.43900
N539        N  0.54675347  0.48959752  0.49334129    -0.34600
N540        N  0.55333939  0.48439508  0.51159898    -0.28800
C541        C  0.54061125  0.46532354  0.51621548    -0.04900
C542        C  0.52534345  0.45837191  0.49996910     0.07300
C543        C  0.52981465  0.47419871  0.48580981     0.01100
H544        H  0.54210949  0.45729491  0.53060308     0.08700
H545        H  0.52106483  0.47473212  0.47157264     0.07800
N546        N  0.60543591  0.52847315  0.54120064    -0.36000
N547        N  0.61215322  0.54711032  0.53672366    -0.28200
C548        C  0.62950639  0.55809666  0.54779103    -0.03400
C549        C  0.63402755  0.54582978  0.55952421     0.05200
C550        C  0.61844254  0.52720044  0.55484249     0.03300
H551        H  0.63840683  0.57383463  0.54682860     0.08400
H552        H  0.61659848  0.51363939  0.56106977     0.07200
C553        C  0.40966034  0.26663241  0.62086469     0.80300
N554        N  0.40492916  0.26785918  0.64390020    -0.78000
C555        C  0.40070576  0.25329364  0.65953298     0.82800
N556        N  0.40084341  0.23740388  0.65180505    -0.77900
C557        C  0.40622424  0.23624695  0.62924839     0.82900
N558        N  0.41105312  0.25114981  0.61383406    -0.79600
C559        C  0.42519101  0.14836460  0.62025406     0.80300
N560        N  0.42784166  0.14733657  0.64413769    -0.78000
C561        C  0.42567759  0.15898463  0.65973281     0.82800
N562        N  0.42067378  0.17147821  0.65135373    -0.77900
C563        C  0.41800534  0.17280484  0.62777382     0.82900
N564        N  0.42024273  0.16118285  0.61201360    -0.79600
C565        C  0.41096167  0.26637519  0.79995387     0.80300
N566        N  0.40617082  0.26776217  0.77698416    -0.78000
C567        C  0.40043879  0.25269087  0.76146448     0.82800
N568        N  0.39946052  0.23629000  0.76915787    -0.77900
C569        C  0.40466056  0.23479651  0.79167595     0.82900
N570        N  0.41074475  0.25005900  0.80705492    -0.79600
C571        C  0.41799603  0.14364083  0.80099062     0.80300
N572        N  0.41334768  0.15674804  0.80899319    -0.78000
C573        C  0.41252948  0.16915810  0.79329085     0.82800
N574        N  0.41642454  0.16845641  0.76999737    -0.77900
C575        C  0.42100236  0.15558798  0.76177032     0.82900
N576        N  0.42161875  0.14301900  0.77728926    -0.79600
C577        C  0.53509096  0.82539570  0.30153243     0.80300
N578        N  0.54072365  0.81319525  0.30992984    -0.78000
C579        C  0.54844863  0.80582426  0.29480671     0.82800
N580        N  0.55036358  0.81062613  0.27143463    -0.77900
C581        C  0.54430874  0.82215982  0.26254117     0.82900
N582        N  0.53645168  0.82943001  0.27767230    -0.79600
C583        C  0.54384163  0.70628014  0.30066837     0.80300
N584        N  0.54752194  0.72366229  0.30982886    -0.78000
C585        C  0.55453019  0.73953508  0.29548521     0.82800
N586        N  0.55762509  0.73780100  0.27215871    -0.77900
C587        C  0.55309771  0.72054543  0.26235420     0.82900
N588        N  0.54595073  0.70461352  0.27670984    -0.79600
C589        C  0.54003292  0.83084491  0.12067210     0.80300
N590        N  0.54120804  0.83397724  0.14475967    -0.78000
C591        C  0.54608051  0.82390244  0.15961044     0.82800
N592        N  0.54934504  0.81034892  0.15028570    -0.77900
C593        C  0.54748554  0.80642117  0.12660342     0.82900
N594        N  0.54280775  0.81667489  0.11169966    -0.79600
C595        C  0.54267204  0.70567441  0.12031436     0.80300
N596        N  0.54497963  0.72253677  0.11143133    -0.78000
C597        C  0.55011533  0.73794578  0.12621583     0.82800
N598        N  0.55299721  0.73642812  0.14969687    -0.77900
C599        C  0.55014228  0.71960537  0.15903402     0.82900
N600        N  0.54473131  0.70409864  0.14425936    -0.79600
N601        N  0.54672684  0.59861248  0.97422208    -0.27200
N602        N  0.53215681  0.58488742  0.96140401    -0.35000
C603        C  0.53873712  0.57621541  0.94715167     0.01200
C604        C  0.55848050  0.58468587  0.95083269     0.07200
C605        C  0.56308413  0.59879949  0.96835154    -0.05900
H606        H  0.52938838  0.56307349  0.93694533     0.07800
H607        H  0.57679297  0.60712419  0.97778835     0.09000
Cu608      Cu  0.50310687  0.57378897  0.96836432     0.44200
Cu609      Cu  0.54184749  0.61354912  0.00168146     0.42000
Cu610      Cu  0.49025439  0.58879539  0.02096894     0.43900
N611        N  0.47539530  0.55846410  0.98243303    -0.34600
N612        N  0.47047561  0.56362867  0.00230557    -0.28800
C613        C  0.45203615  0.54975157  0.00791212    -0.04900
C614        C  0.44518581  0.53514411  0.99073810     0.07300
C615        C  0.46039962  0.54119169  0.97489772     0.01100
H616        H  0.44447865  0.54993627  0.02373175     0.08700
H617        H  0.46084835  0.53329607  0.95951901     0.07800
N618        N  0.51269043  0.61517014  0.03485756    -0.36000
N619        N  0.53106768  0.62445487  0.02776110    -0.28200
C620        C  0.54106840  0.64150269  0.03989100    -0.03400
C621        C  0.52844691  0.64293383  0.05545032     0.05200
C622        C  0.51064454  0.62589011  0.05171969     0.03300
H623        H  0.55644792  0.65198763  0.03769049     0.08400
H624        H  0.49699791  0.62176210  0.06023337     0.07200
N625        N  0.37193075  0.41441768  0.98344282    -0.27200
N626        N  0.38333308  0.42815964  0.96810361    -0.35000
C627        C  0.39252514  0.42177357  0.95452299     0.01200
C628        C  0.38675960  0.40307450  0.96137766     0.07200
C629        C  0.37378094  0.39886812  0.97996328    -0.05900
H630        H  0.40424840  0.43090053  0.94238984     0.07800
H631        H  0.36755185  0.38622469  0.99144000     0.09000
Cu632      Cu  0.39108961  0.45693946  0.97040026     0.44200
Cu633      Cu  0.35662763  0.41919965  0.01002201     0.42000
Cu634      Cu  0.37240805  0.47091155  0.01801363     0.43900
N635        N  0.40434134  0.48546969  0.98213730    -0.34600
N636        N  0.39793640  0.49073353  0.00055676    -0.28800
C637        C  0.41113161  0.50947962  0.00611506    -0.04900
C638        C  0.42655148  0.51624617  0.99034128     0.07300
C639        C  0.42169517  0.50063543  0.97536649     0.01100
H640        H  0.40994586  0.51730809  0.02106541     0.08700
H641        H  0.43060806  0.49995609  0.96147811     0.07800
N642        N  0.34727949  0.44766209  0.03267454    -0.36000
N643        N  0.34197477  0.42910554  0.03091378    -0.28200
C644        C  0.32532218  0.41819004  0.04322276    -0.03400
C645        C  0.31977715  0.43043434  0.05283494     0.05200
C646        C  0.33401420  0.44896437  0.04567136     0.03300
H647        H  0.31756431  0.40246362  0.04455884     0.08400
H648        H  0.33485018  0.46248942  0.04992167     0.07200
N649        N  0.41082868  0.38010682  0.93511429    -0.27200
N650        N  0.42492947  0.39408569  0.94819348    -0.35000
C651        C  0.41775096  0.40285571  0.96121758     0.01200
C652        C  0.39811345  0.39399613  0.95642125     0.07200
C653        C  0.39418911  0.37970775  0.93955372    -0.05900
H654        H  0.42657226  0.41599450  0.97165897     0.07800
H655        H  0.38071558  0.37086629  0.92980311     0.09000
Cu656      Cu  0.45410251  0.40415337  0.94383310     0.44200
Cu657      Cu  0.41645005  0.36452230  0.90991339     0.42000
Cu658      Cu  0.46893539  0.38358450  0.89894776     0.43900
N659        N  0.48247076  0.41757091  0.93195881    -0.34600
N660        N  0.48820052  0.41048558  0.91476882    -0.28800
C661        C  0.50677137  0.42398676  0.90902105    -0.04900
C662        C  0.51285489  0.44031287  0.92333163     0.07300
C663        C  0.49706944  0.43561939  0.93766604     0.01100
H664        H  0.51485481  0.42242021  0.89474168     0.08700
H665        H  0.49584054  0.44503890  0.95038256     0.07800
N666        N  0.44587169  0.35736234  0.88547916    -0.36000
N667        N  0.42718030  0.35096239  0.88851415    -0.28200
C668        C  0.41647690  0.33415358  0.87624552    -0.03400
C669        C  0.42896557  0.32963048  0.86521097     0.05200
C670        C  0.44745661  0.34461129  0.87157600     0.03300
H671        H  0.40074117  0.32574279  0.87562220     0.08400
H672        H  0.46111253  0.34641646  0.86593866     0.07200
N673        N  0.58417091  0.56321517  0.92391397    -0.27200
N674        N  0.57139387  0.54905291  0.93786058    -0.35000
C675        C  0.56191827  0.55544214  0.95085704     0.01200
C676        C  0.56892525  0.57466120  0.94519790     0.07200
C677        C  0.58297081  0.57915857  0.92779476    -0.05900
H678        H  0.54955098  0.54620701  0.96211575     0.07800
H679        H  0.59063750  0.59246625  0.91753298     0.09000
Cu680      Cu  0.56361039  0.52030652  0.93539028     0.44200
Cu681      Cu  0.60062776  0.55808222  0.89908710     0.42000
Cu682      Cu  0.58449910  0.50520984  0.89236769     0.43900
N683        N  0.55175155  0.49132207  0.92667691    -0.34600
N684        N  0.55900804  0.48530686  0.91008082    -0.28800
C685        C  0.54670936  0.46594299  0.90667817    -0.04900
C686        C  0.53099398  0.45965038  0.92195337     0.07300
C687        C  0.53478316  0.47616204  0.93433948     0.01100
H688        H  0.54866660  0.45730028  0.89348226     0.08700
H689        H  0.52543253  0.47733030  0.94714407     0.07800
N690        N  0.60956190  0.52861815  0.87747215    -0.36000
N691        N  0.61514795  0.54728172  0.87907701    -0.28200
C692        C  0.63185695  0.55788993  0.86671351    -0.03400
C693        C  0.63717931  0.54540157  0.85718837     0.05200
C694        C  0.62260401  0.52699097  0.86439303     0.03300
H695        H  0.63975657  0.57360188  0.86513383     0.08400
H696        H  0.62128242  0.51325562  0.86008462     0.07200
C697        C  0.25426389  0.41450421  0.29363511     0.80300
N698        N  0.25494284  0.41007122  0.27022827    -0.78000
C699        C  0.24021393  0.40631078  0.25498044     0.82800
N700        N  0.22485603  0.40703857  0.26332474    -0.77900
C701        C  0.22428971  0.41220549  0.28620050     0.82900
N702        N  0.23917714  0.41624355  0.30129795    -0.79600
C703        C  0.13571263  0.42927004  0.28889114     0.80300
N704        N  0.13621854  0.43221314  0.26482926    -0.78000
C705        C  0.14950906  0.43130925  0.25091243     0.82800
N706        N  0.16202566  0.42710731  0.26120901    -0.77900
C707        C  0.16177111  0.42407169  0.28493893     0.82900
N708        N  0.14852155  0.42504197  0.29890958    -0.79600
C709        C  0.25459428  0.41261212  0.11389557     0.80300
N710        N  0.25561209  0.40897810  0.13747728    -0.78000
C711        C  0.24025224  0.40376891  0.15217022     0.82800
N712        N  0.22380942  0.40179218  0.14290117    -0.77900
C713        C  0.22264384  0.40579150  0.11970810     0.82900
N714        N  0.23829372  0.41166722  0.10526800    -0.79600
C715        C  0.13755751  0.42713992  0.10890156     0.80300
N716        N  0.14918700  0.42077223  0.10058725    -0.78000
C717        C  0.16085699  0.41851838  0.11605814     0.82800
N718        N  0.16082237  0.42261085  0.13947742    -0.77900
C719        C  0.14936020  0.42884810  0.14802471     0.82900
N720        N  0.13762425  0.43101275  0.13266158    -0.79600
C721        C  0.20642059  0.42049880  0.09728935    -0.21200
C722        C  0.20500601  0.40556652  0.11175632    -0.09200
C723        C  0.18696265  0.39226212  0.12225278     0.29600
C724        C  0.17150206  0.39525513  0.12074375    -0.21200
C725        C  0.17360671  0.41145623  0.10869846    -0.09300
C726        C  0.19078841  0.42349929  0.09582155     0.29600
F727        F  0.19327276  0.43939904  0.08420495    -0.19800
H728        H  0.22014358  0.43091031  0.08900834     0.18000
H729        H  0.15840677  0.38587572  0.13086900     0.18000
F730        F  0.18475398  0.37723834  0.13569014    -0.19800
C731        C  0.13354084  0.43030759  0.21168418    -0.21200
C732        C  0.15004205  0.43373229  0.22456296    -0.09200
C733        C  0.16686285  0.43806340  0.21177053     0.29600
C734        C  0.16662704  0.43743456  0.18694441    -0.21200
C735        C  0.14976375  0.43260784  0.17402966    -0.09300
C736        C  0.13337194  0.42977041  0.18657768     0.29600
F737        F  0.11683263  0.42525745  0.17476331    -0.19800
H738        H  0.12045580  0.42710384  0.22102132     0.18000
H739        H  0.17964406  0.44020378  0.17778141     0.18000
F740        F  0.18354523  0.44246823  0.22318057    -0.19800
C741        C  0.22394166  0.39076232  0.19122944    -0.21200
C742        C  0.24137282  0.40179993  0.17844941    -0.09200
C743        C  0.25898716  0.41227589  0.19135752     0.29600
C744        C  0.25880268  0.41275100  0.21647949    -0.21200
C745        C  0.24110548  0.40287642  0.22904623    -0.09300
C746        C  0.22375111  0.39126382  0.21610715     0.29600
F747        F  0.20640381  0.38078769  0.22748791    -0.19800
H748        H  0.21019013  0.38220666  0.18188433     0.18000
H749        H  0.27237254  0.42178201  0.22600956     0.18000
F750        F  0.27618869  0.42314907  0.17981542    -0.19800
C751        C  0.18868433  0.39826543  0.28874918    -0.21200
C752        C  0.20764279  0.41387434  0.29361971    -0.09200
C753        C  0.21037570  0.43187906  0.30089298     0.29600
C754        C  0.19455420  0.43459540  0.30107317    -0.21200
C755        C  0.17586079  0.41935246  0.29433153    -0.09300
C756        C  0.17290836  0.40091411  0.28922534     0.29600
F757        F  0.15508875  0.38600584  0.28226501    -0.19800
H758        H  0.18629682  0.38433018  0.28293167     0.18000
H759        H  0.19722565  0.44906770  0.30432397     0.18000
F760        F  0.22856463  0.44739742  0.30510383    -0.19800
C761        C  0.28139407  0.40767122  0.10126598    -0.21200
C762        C  0.27089753  0.41690028  0.09768947    -0.09200
C763        C  0.27623853  0.43015906  0.07871286     0.29600
C764        C  0.29212255  0.43445773  0.06418045    -0.21200
C765        C  0.30257081  0.42518747  0.06777965    -0.09300
C766        C  0.29688662  0.41153077  0.08628685     0.29600
F767        F  0.30677691  0.40247585  0.09050567    -0.19800
H768        H  0.27749859  0.39731166  0.11563683     0.18000
H769        H  0.29622628  0.44500068  0.04998549     0.18000
F770        F  0.26654112  0.43944251  0.07466952    -0.19800
C771        C  0.54923963  0.69375353  0.08226826    -0.21200
C772        C  0.53899409  0.68956616  0.10386871    -0.09200
C773        C  0.52552295  0.66995890  0.10959121     0.29600
C774        C  0.52218391  0.65495678  0.09376925    -0.21200
C775        C  0.53256720  0.65909822  0.07222569    -0.09300
C776        C  0.54630145  0.67872433  0.06674439     0.29600
F777        F  0.55647903  0.68349663  0.04605776    -0.19800
H778        H  0.55977063  0.70873618  0.07753460     0.18000
H779        H  0.51155180  0.64001247  0.09850938     0.18000
F780        F  0.51518929  0.66532122  0.13016895    -0.19800
C781        C  0.53287045  0.75459468  0.11371237    -0.21200
C782        C  0.55047418  0.75558630  0.11822683    -0.09200
C783        C  0.56760405  0.77398352  0.12098334     0.29600
C784        C  0.56685216  0.79095617  0.12101670    -0.21200
C785        C  0.54903014  0.78987124  0.11832296    -0.09300
C786        C  0.53209881  0.77160608  0.11390304     0.29600
F787        F  0.51452970  0.76998546  0.11256571    -0.19800
H788        H  0.51943445  0.74052903  0.11228331     0.18000
H789        H  0.57997200  0.80483677  0.12499005     0.18000
F790        F  0.58480158  0.77538633  0.12558133    -0.19800
C791        C  0.54380117  0.70156508  0.22344031    -0.21200
C792        C  0.55442255  0.71940273  0.23590426    -0.09200
C793        C  0.56517148  0.73671733  0.22256534     0.29600
C794        C  0.56419768  0.73628103  0.19775319    -0.21200
C795        C  0.55267064  0.71869773  0.18524100    -0.09300
C796        C  0.54292405  0.70116471  0.19830823     0.29600
F797        F  0.53170281  0.68379364  0.18699697    -0.19800
H798        H  0.53546705  0.68800837  0.23313069     0.18000
H799        H  0.57226158  0.74999487  0.18829436     0.18000
F800        F  0.57636536  0.75434787  0.23338849    -0.19800
C801        C  0.56009495  0.82389332  0.22383492    -0.21200
C802        C  0.54629157  0.82605720  0.23642018    -0.09200
C803        C  0.53384232  0.83006746  0.22341986     0.29600
C804        C  0.53444416  0.83049719  0.19828216    -0.21200
C805        C  0.54738522  0.82687894  0.18586254    -0.09300
C806        C  0.56064798  0.82424825  0.19900499     0.29600
F807        F  0.57397301  0.82156065  0.18782366    -0.19800
H808        H  0.57023192  0.82128855  0.23324201     0.18000
H809        H  0.52411531  0.83261382  0.18854059     0.18000
F810        F  0.52035109  0.83236154  0.23479398    -0.19800
C811        C  0.54047993  0.77510610  0.31622298    -0.21200
C812        C  0.55342114  0.79137155  0.30238111    -0.09200
C813        C  0.56933026  0.79175980  0.29161586     0.29600
C814        C  0.57085503  0.77533621  0.29216523    -0.21200
C815        C  0.55651785  0.75810175  0.30325633    -0.09300
C816        C  0.54200498  0.75848798  0.31670837     0.29600
F817        F  0.52807680  0.74220340  0.32798393    -0.19800
H818        H  0.52815387  0.77452246  0.32472897     0.18000
H819        H  0.58238068  0.77553217  0.28204120     0.18000
F820        F  0.58251557  0.80745692  0.27874247    -0.19800
C821        C  0.40522915  0.29190400  0.81581465    -0.21200
C822        C  0.41536815  0.28214389  0.81726200    -0.09200
C823        C  0.42966519  0.28776469  0.83508681     0.29600
C824        C  0.43405140  0.30324749  0.85061698    -0.21200
C825        C  0.42385503  0.31295018  0.84915173    -0.09300
C826        C  0.40921078  0.30696922  0.83176344     0.29600
F827        F  0.39925610  0.31617908  0.82955039    -0.19800
H828        H  0.39407394  0.28776814  0.80234277     0.18000
H829        H  0.44536512  0.30760415  0.86392338     0.18000
F830        F  0.43983094  0.27874990  0.83700576    -0.19800
C831        C  0.39017756  0.19916841  0.78698950    -0.21200
C832        C  0.40407627  0.21666671  0.79824960    -0.09200
C833        C  0.41855286  0.21680616  0.81247408     0.29600
C834        C  0.42005739  0.20018066  0.81335175    -0.21200
C835        C  0.40710653  0.18333942  0.80020320    -0.09300
C836        C  0.39168599  0.18274152  0.78785471     0.29600
F837        F  0.37910415  0.16678604  0.77471797    -0.19800
H838        H  0.37875863  0.19855959  0.77613942     0.18000
H839        H  0.43232166  0.20106721  0.82248938     0.18000
F840        F  0.43234726  0.23346126  0.82346706    -0.19800
C841        C  0.42073431  0.14006226  0.69748717    -0.21200
C842        C  0.42792198  0.15800659  0.68580522    -0.09200
C843        C  0.43525249  0.17508944  0.69957167     0.29600
C844        C  0.43405385  0.17407918  0.72432920    -0.21200
C845        C  0.42548636  0.15607177  0.73608267    -0.09300
C846        C  0.41945639  0.13904806  0.72254403     0.29600
F847        F  0.41096383  0.12136310  0.73327680    -0.19800
H848        H  0.41496765  0.12671752  0.68721421     0.18000
H849        H  0.43916268  0.18745405  0.73434370     0.18000
F850        F  0.44295999  0.19280151  0.68904508    -0.19800
C851        C  0.38480911  0.23759353  0.69771519    -0.21200
C852        C  0.39742589  0.25479844  0.68528116    -0.09200
C853        C  0.40858153  0.27230158  0.69829800     0.29600
C854        C  0.40845194  0.27201075  0.72341154    -0.21200
C855        C  0.39716368  0.25431642  0.73573212    -0.09300
C856        C  0.38454562  0.23732517  0.72258211     0.29600
F857        F  0.37259197  0.22014048  0.73377451    -0.19800
H858        H  0.37576065  0.22401799  0.68811233     0.18000
H859        H  0.41820969  0.28531970  0.73312219     0.18000
F860        F  0.42086330  0.28928036  0.68691792    -0.19800
C861        C  0.39297771  0.20064935  0.63183816    -0.21200
C862        C  0.40711910  0.21887119  0.62256092    -0.09200
C863        C  0.42315722  0.22045856  0.61041792     0.29600
C864        C  0.42571220  0.20445723  0.60954739    -0.21200
C865        C  0.41225414  0.18673075  0.62058797    -0.09300
C866        C  0.39547531  0.18478135  0.63088311     0.29600
F867        F  0.38228840  0.16794415  0.64191377    -0.19800
H868        H  0.38045829  0.19899904  0.64117681     0.18000
H869        H  0.43900754  0.20644252  0.60211305     0.18000
F870        F  0.43731204  0.23791136  0.60163212    -0.19800
C871        C  0.40325239  0.30295098  0.58522571    -0.21200
C872        C  0.42009640  0.31185989  0.57106662    -0.09200
C873        C  0.43320438  0.30537266  0.57306813     0.29600
C874        C  0.42950980  0.29039619  0.58891174    -0.21200
C875        C  0.41300472  0.28194080  0.60354515    -0.09300
C876        C  0.39984473  0.28832018  0.60155997     0.29600
F877        F  0.38351045  0.28015021  0.61511323    -0.19800
H878        H  0.39294575  0.30765155  0.58406366     0.18000
H879        H  0.43978745  0.28565530  0.59010914     0.18000
F880        F  0.44945942  0.31324370  0.55941454    -0.19800
C881        C  0.27327245  0.42833426  0.33169932    -0.21200
C882        C  0.26969817  0.41722071  0.31077004    -0.09200
C883        C  0.28090745  0.40870950  0.30667714     0.29600
C884        C  0.29539155  0.41151819  0.32299210    -0.21200
C885        C  0.29933364  0.42319237  0.34338100    -0.09300
C886        C  0.28804177  0.43148221  0.34767656     0.29600
F887        F  0.29118209  0.44250163  0.36749847    -0.19800
H888        H  0.26487055  0.43496275  0.33551037     0.18000
H889        H  0.30395466  0.40503806  0.31932402     0.18000
F890        F  0.27781846  0.39752256  0.28703882    -0.19800
C891        C  0.54230688  0.67699165  0.35463165    -0.21200
C892        C  0.52975803  0.65770314  0.34683629    -0.09200
C893        C  0.52150987  0.65447933  0.32383282     0.29600
C894        C  0.52612393  0.67029020  0.30890358    -0.21200
C895        C  0.53858867  0.68960440  0.31680573    -0.09300
C896        C  0.54649212  0.69277739  0.33998648     0.29600
F897        F  0.55878131  0.71114603  0.34830235    -0.19800
H898        H  0.54872550  0.67988577  0.37229183     0.18000
H899        H  0.51984364  0.66742998  0.29116115     0.18000
F900        F  0.50945725  0.63607247  0.31546565    -0.19800
C901        C  0.11211996  0.45030020  0.08028567    -0.21200
C902        C  0.10202360  0.43758110  0.06113818    -0.09200
C903        C  0.10376914  0.42119832  0.05777681     0.29600
C904        C  0.11556178  0.41795552  0.07310768    -0.21200
C905        C  0.12548581  0.43070787  0.09227252    -0.09300
C906        C  0.12361143  0.44691807  0.09568905     0.29600
F907        F  0.13332271  0.45986400  0.11361642    -0.19800
H908        H  0.11103612  0.46292914  0.08362501     0.18000
H909        H  0.11674595  0.40532093  0.07018832     0.18000
F910        F  0.09450353  0.40854125  0.03947578    -0.19800
C911        C  0.85965240  0.29319837  0.81227861    -0.21200
C912        C  0.83922610  0.28308080  0.81283244    -0.09200
C913        C  0.83007722  0.28848115  0.82977669     0.29600
C914        C  0.84125142  0.30389956  0.84565310    -0.21200
C915        C  0.86169691  0.31387493  0.84530170    -0.09300
C916        C  0.87081788  0.30830556  0.82849047     0.29600
F917        F  0.89051255  0.31784393  0.82714618    -0.19800
H918        H  0.86700327  0.28923919  0.79940560     0.18000
H919        H  0.83389204  0.30793585  0.85840548     0.18000
F920        F  0.81037455  0.27922573  0.83055493    -0.19800
C921        C  0.78364358  0.19833762  0.78796676    -0.21200
C922        C  0.78516233  0.21567680  0.79554997    -0.09200
C923        C  0.76883961  0.21478784  0.80593077     0.29600
C924        C  0.75078144  0.19698303  0.80632164    -0.21200
C925        C  0.74900753  0.18004615  0.79648103    -0.09300
C926        C  0.76583550  0.18072329  0.78846565     0.29600
F927        F  0.76472027  0.16456454  0.77921648    -0.19800
H928        H  0.79606670  0.19864112  0.78015513     0.18000
H929        H  0.73795159  0.19680970  0.81231881     0.18000
F930        F  0.76983809  0.23134375  0.81332882    -0.19800
C931        C  0.72844028  0.14025520  0.69589434    -0.21200
C932        C  0.71227959  0.13603263  0.68185772    -0.09200
C933        C  0.69453387  0.13035951  0.69331519     0.29600
C934        C  0.69365040  0.13061678  0.71840707    -0.21200
C935        C  0.71041903  0.13653990  0.73223287    -0.09300
C936        C  0.72758075  0.14050357  0.72067380     0.29600
F937        F  0.74394188  0.14556756  0.73331953    -0.19800
H938        H  0.74216231  0.14424520  0.68762266     0.18000
H939        H  0.68028481  0.12751822  0.72689827     0.18000
F940        F  0.67854265  0.12611285  0.68039874    -0.19800
C941        C  0.83666319  0.26917610  0.69368334    -0.21200
C942        C  0.83355189  0.25204041  0.68266372    -0.09200
C943        C  0.83059611  0.23646704  0.69711519     0.29600
C944        C  0.82912173  0.23738926  0.72181204    -0.21200
C945        C  0.83075123  0.25387591  0.73273088    -0.09300
C946        C  0.83525122  0.27011744  0.71857383     0.29600
F947        F  0.83659745  0.28617842  0.72848073    -0.19800
H948        H  0.83889189  0.28133823  0.68295919     0.18000
H949        H  0.82592668  0.22482009  0.73239854     0.18000
F950        F  0.82836687  0.21997888  0.68730034    -0.19800
C951        C  0.77207281  0.17576586  0.62832023    -0.21200
C952        C  0.75615683  0.17591247  0.61849825    -0.09200
C953        C  0.75952222  0.19273766  0.60653421     0.29600
C954        C  0.77831182  0.20963156  0.60631297    -0.21200
C955        C  0.79383327  0.20989956  0.61812435    -0.09300
C956        C  0.79069407  0.19250307  0.62812547     0.29600
F957        F  0.80541248  0.19208189  0.63924664    -0.19800
H958        H  0.76984374  0.16294804  0.63753570     0.18000
H959        H  0.78033311  0.22293273  0.59878213     0.18000
F960        F  0.74441189  0.19352744  0.59733379    -0.19800
C961        C  0.52553485  0.86600320  0.09779977    -0.21200
C962        C  0.53056595  0.86771439  0.07358122    -0.09200
C963        C  0.53849744  0.85700598  0.06476226     0.29600
C964        C  0.54121865  0.84480275  0.07998604    -0.21200
C965        C  0.53643092  0.84328781  0.10439247    -0.09300
C966        C  0.52858243  0.85416788  0.11310217     0.29600
F967        F  0.52357939  0.85327841  0.13638374    -0.19800
H968        H  0.51939522  0.87408952  0.10503359     0.18000
H969        H  0.54729593  0.83668997  0.07267213     0.18000
F970        F  0.54305285  0.85784675  0.04131636    -0.19800
C971        C  0.66258949  0.12191461  0.84873212    -0.21200
C972        C  0.65054750  0.10171456  0.84484791    -0.09200
C973        C  0.65422689  0.09331204  0.82514340     0.29600
C974        C  0.66946018  0.10498134  0.80943901    -0.21200
C975        C  0.68165102  0.12520061  0.81333295    -0.09300
C976        C  0.67818706  0.13353830  0.83339133     0.29600
F977        F  0.68949492  0.15298452  0.83783203    -0.19800
H978        H  0.65996868  0.12868387  0.86379472     0.18000
H979        H  0.67180279  0.09812557  0.79424471     0.18000
F980        F  0.64261926  0.07392447  0.82053170    -0.19800
C981        C  0.43764325  0.11524576  0.83060295    -0.21200
C982        C  0.42514748  0.10670927  0.85019701    -0.09200
C983        C  0.41000998  0.11030570  0.85346612     0.29600
C984        C  0.40780187  0.12250284  0.83761063    -0.21200
C985        C  0.42032798  0.13091966  0.81797982    -0.09300
C986        C  0.43523598  0.12706621  0.81461639     0.29600
F987        F  0.44793920  0.13522591  0.79623907    -0.19800
H988        H  0.44934852  0.11268736  0.82748244     0.18000
H989        H  0.39618285  0.12523299  0.84053953     0.18000
F990        F  0.39774809  0.10257650  0.87230490    -0.19800
C991        C  0.53866465  0.84173590  0.34091816    -0.21200
C992        C  0.52944924  0.83576200  0.31852782    -0.09200
C993        C  0.51551936  0.84049340  0.31238149     0.29600
C994        C  0.51121101  0.85123401  0.32820660    -0.21200
C995        C  0.52103843  0.85789496  0.35016369    -0.09300
C996        C  0.53469662  0.85285874  0.35647597     0.29600
F997        F  0.54401122  0.85842074  0.37785153    -0.19800
H998        H  0.54939982  0.83825127  0.34614219     0.18000
H999        H  0.50053220  0.85480112  0.32300618     0.18000
F1000       F  0.50594163  0.83459882  0.29118452    -0.19800
C1001       C  0.66294155  0.09230637  0.58263693    -0.21200
C1002       C  0.65682115  0.10142188  0.56665721    -0.09200
C1003       C  0.66692461  0.12198368  0.56634400     0.29600
C1004       C  0.68263553  0.13307592  0.58191680    -0.21200
C1005       C  0.68818085  0.12389467  0.59852902    -0.09300
C1006       C  0.67826912  0.10338388  0.59865956     0.29600
F1007       F  0.68352907  0.09405553  0.61418556    -0.19800
H1008       H  0.65543990  0.07653643  0.58324026     0.18000
H1009       H  0.69011947  0.14885264  0.58148246     0.18000
F1010       F  0.66175507  0.13138492  0.55082916    -0.19800
C1011       C  0.41723675  0.11178034  0.57146549    -0.21200
C1012       C  0.43365081  0.11012192  0.57437280    -0.09200
C1013       C  0.44731001  0.12157624  0.59230207     0.29600
C1014       C  0.44449752  0.13409803  0.60673589    -0.21200
C1015       C  0.42822976  0.13580794  0.60365849    -0.09300
C1016       C  0.41458342  0.12454200  0.58583477     0.29600
F1017       F  0.39828851  0.12525736  0.58297811    -0.19800
H1018       H  0.40640645  0.10323608  0.55798573     0.18000
H1019       H  0.45511019  0.14249445  0.62052647     0.18000
F1020       F  0.46314832  0.12035710  0.59663722    -0.19800
C1021       C  0.10727036  0.66913783  0.07698757    -0.21200
C1022       C  0.08692176  0.66041827  0.07640145    -0.09200
C1023       C  0.07837737  0.66806419  0.09104545     0.29600
C1024       C  0.08996677  0.68400109  0.10602325    -0.21200
C1025       C  0.11030420  0.69294029  0.10630523    -0.09300
C1026       C  0.11892571  0.68542673  0.09157620     0.29600
F1027       F  0.13849541  0.69342174  0.09185712    -0.19800
H1028       H  0.11417374  0.66343562  0.06594516     0.18000
H1029       H  0.08302443  0.68952009  0.11731722     0.18000
F1030       F  0.05877104  0.65973871  0.09152781    -0.19800
C1031       C  0.28871129  0.85404783  0.11507246    -0.21200
C1032       C  0.26996021  0.84788676  0.10660984    -0.09200
C1033       C  0.26789562  0.85364868  0.08367633     0.29600
C1034       C  0.28438292  0.86568907  0.06980323    -0.21200
C1035       C  0.30315518  0.87187025  0.07831751    -0.09300
C1036       C  0.30512849  0.86575054  0.10108014     0.29600
F1037       F  0.32295326  0.87169597  0.11031004    -0.19800
H1038       H  0.29068345  0.84988977  0.13271756     0.18000
H1039       H  0.28245474  0.87012490  0.05232310     0.18000
F1040       F  0.25005759  0.84837136  0.07507116    -0.19800
C1041       C  0.19941086  0.77964361  0.11343284    -0.21200
C1042       C  0.20069563  0.79693733  0.12102286    -0.09200
C1043       C  0.18351040  0.79654186  0.12631920     0.29600
C1044       C  0.16558670  0.77891227  0.12595652    -0.21200
C1045       C  0.16442458  0.76129916  0.12050134    -0.09300
C1046       C  0.18137411  0.76185912  0.11325404     0.29600
F1047       F  0.18087433  0.74505198  0.10870432    -0.19800
H1048       H  0.21254518  0.77959491  0.10975938     0.18000
H1049       H  0.15272222  0.77880712  0.13168051     0.18000
F1050       F  0.18424435  0.81301160  0.13357235    -0.19800
C1051       C  0.12628925  0.74217125  0.22242908    -0.21200
C1052       C  0.11987126  0.72494517  0.23538637    -0.09200
C1053       C  0.11192127  0.70716955  0.22274996     0.29600
C1054       C  0.11224058  0.70711453  0.19768185    -0.21200
C1055       C  0.12041701  0.72470886  0.18491881    -0.09300
C1056       C  0.12658054  0.74212469  0.19761129     0.29600
F1057       F  0.13369586  0.75938022  0.18612627    -0.19800
H1058       H  0.13191741  0.75601709  0.23152979     0.18000
H1059       H  0.10716974  0.69345771  0.18836344     0.18000
F1060       F  0.10499306  0.69004502  0.23444166    -0.19800
C1061       C  0.28190574  0.86479714  0.35625291    -0.21200
C1062       C  0.30047801  0.86865582  0.35014794    -0.09200
C1063       C  0.30267102  0.86095802  0.32858088     0.29600
C1064       C  0.28670844  0.85003983  0.31336018    -0.21200
C1065       C  0.26815232  0.84612990  0.31952179    -0.09300
C1066       C  0.26584153  0.85346517  0.34126876     0.29600
F1067       F  0.24822372  0.85038115  0.34758120    -0.19800
H1068       H  0.27978901  0.87047504  0.37274486     0.18000
H1069       H  0.28885763  0.84463764  0.29664996     0.18000
F1070       F  0.32036826  0.86457981  0.32168266    -0.19800
C1071       C  0.25805742  0.84003268  0.22509963    -0.21200
C1072       C  0.24140721  0.83647135  0.23757772    -0.09200
C1073       C  0.22560349  0.83465875  0.22454648     0.29600
C1074       C  0.22569101  0.83447513  0.19970525    -0.21200
C1075       C  0.24159268  0.83640873  0.18713000    -0.09300
C1076       C  0.25822029  0.84008695  0.19999796     0.29600
F1077       F  0.27401332  0.84229114  0.18845225    -0.19800
H1078       H  0.27045825  0.84161175  0.23469104     0.18000
H1079       H  0.21293476  0.83216865  0.19024335     0.18000
F1080       F  0.20965954  0.83237084  0.23580885    -0.19800
C1081       C  0.18251750  0.79891793  0.29058166    -0.21200
C1082       C  0.19798555  0.79899286  0.30210949    -0.09200
C1083       C  0.19399925  0.78258780  0.31560086     0.29600
C1084       C  0.17523708  0.76562377  0.31508333    -0.21200
C1085       C  0.16039044  0.76494811  0.30112204    -0.09300
C1086       C  0.16396796  0.78217498  0.29005531     0.29600
F1087       F  0.14989748  0.78239630  0.27702729    -0.19800
H1088       H  0.18514341  0.81146618  0.28035483     0.18000
H1089       H  0.17284324  0.75256331  0.32378489     0.18000
F1090       F  0.20857417  0.78218954  0.32709101    -0.19800
C1091       C  0.67909836  0.54402092  0.82792488    -0.21200
C1092       C  0.68637054  0.55972350  0.81198539    -0.09200
C1093       C  0.67771422  0.57100441  0.81155087     0.29600
C1094       C  0.66205558  0.56651581  0.82661070    -0.21200
C1095       C  0.65439277  0.55047160  0.84208941    -0.09300
C1096       C  0.66317300  0.53927673  0.84264703     0.29600
F1097       F  0.65666650  0.52395389  0.85772885    -0.19800
H1098       H  0.68552608  0.53515005  0.82866203     0.18000
H1099       H  0.65565348  0.57540096  0.82578672     0.18000
F1100       F  0.68460316  0.58661839  0.79685388    -0.19800
C1101       C  0.83511643  0.54939790  0.83177489    -0.21200
C1102       C  0.82931146  0.53908235  0.80999266    -0.09200
C1103       C  0.83682780  0.52730086  0.80397551     0.29600
C1104       C  0.84933552  0.52555953  0.81962629    -0.21200
C1105       C  0.85498421  0.53569340  0.84147617    -0.09300
C1106       C  0.84795418  0.54790682  0.84726615     0.29600
F1107       F  0.85281204  0.55779934  0.86828619    -0.19800
H1108       H  0.82969910  0.55866051  0.83686837     0.18000
H1109       H  0.85460819  0.51616110  0.81459784     0.18000
F1110       F  0.83166371  0.51690791  0.78329782    -0.19800
C1111       C  0.75981066  0.54206578  0.80688664    -0.21200
C1112       C  0.77772741  0.55398439  0.79538994    -0.09200
C1113       C  0.78173772  0.57165331  0.78538533     0.29600
C1114       C  0.76755044  0.57656445  0.78515839    -0.21200
C1115       C  0.74898407  0.56394697  0.79480568    -0.09300
C1116       C  0.74551632  0.54705477  0.80678602     0.29600
F1117       F  0.72776376  0.53442315  0.81622290    -0.19800
H1118       H  0.75630340  0.52816749  0.81422077     0.18000
H1119       H  0.77068717  0.58972615  0.77599779     0.18000
F1120       F  0.79881943  0.58334125  0.77389538    -0.19800
C1121       C  0.67607569  0.57150851  0.60361681    -0.21200
C1122       C  0.68408084  0.55968762  0.60267595    -0.09200
C1123       C  0.67588898  0.54367548  0.58688763     0.29600
C1124       C  0.65967010  0.53931589  0.57290674    -0.21200
C1125       C  0.65165226  0.55113166  0.57384235    -0.09300
C1126       C  0.66022105  0.56749012  0.58911132     0.29600
F1127       F  0.65283536  0.57917210  0.59073426    -0.19800
H1128       H  0.68219537  0.58397681  0.61555562     0.18000
H1129       H  0.65339418  0.52668811  0.56122454     0.18000
F1130       F  0.68309817  0.53182209  0.58559034    -0.19800
C1131       C  0.69908872  0.56799792  0.71999663    -0.21200
C1132       C  0.71690157  0.57844240  0.73234248    -0.09200
C1133       C  0.73408094  0.58994962  0.71919862     0.29600
C1134       C  0.73360419  0.58965432  0.69426635    -0.21200
C1135       C  0.71602647  0.57801534  0.68183114    -0.09300
C1136       C  0.69860351  0.56771750  0.69494565     0.29600
F1137       F  0.68132578  0.55605127  0.68370626    -0.19800
H1138       H  0.68566598  0.55895624  0.72967465     0.18000
H1139       H  0.74718142  0.59796083  0.68462431     0.18000
F1140       F  0.75149450  0.60092958  0.73045184    -0.19800
C1141       C  0.78493975  0.52843556  0.69130670    -0.21200
C1142       C  0.80249438  0.53603826  0.67881404    -0.09200
C1143       C  0.81959161  0.54124495  0.69162792     0.29600
C1144       C  0.81921176  0.54029324  0.71670337    -0.21200
C1145       C  0.80180428  0.53409421  0.72918559    -0.09300
C1146       C  0.78451605  0.52734238  0.71610058     0.29600
F1147       F  0.76718464  0.52024113  0.72731450    -0.19800
H1148       H  0.77148147  0.52384829  0.68184554     0.18000
H1149       H  0.83270584  0.54550033  0.72635984     0.18000
F1150       F  0.83683882  0.54856617  0.68015770    -0.19800
C1151       C  0.78096585  0.57399462  0.62152528    -0.21200
C1152       C  0.77631940  0.55537178  0.61419609    -0.09200
C1153       C  0.75725646  0.54182941  0.60645242     0.29600
C1154       C  0.74279927  0.54652032  0.60757171    -0.21200
C1155       C  0.74715241  0.56460900  0.61689357    -0.09300
C1156       C  0.76656301  0.57861382  0.62288545     0.29600
F1157       F  0.77135302  0.59636584  0.63153221    -0.19800
H1158       H  0.79548279  0.58447615  0.62799091     0.18000
H1159       H  0.72791086  0.53543574  0.60312913     0.18000
F1160       F  0.75220929  0.52347263  0.60011766    -0.19800
C1161       C  0.86018077  0.31305552  0.59215679    -0.21200
C1162       C  0.86647845  0.31054751  0.56982207    -0.09200
C1163       C  0.86197628  0.29174645  0.56310493     0.29600
C1164       C  0.85123419  0.27585915  0.57843083    -0.21200
C1165       C  0.84524430  0.27851034  0.60090655    -0.09300
C1166       C  0.84990127  0.29731181  0.60766730     0.29600
F1167       F  0.84418238  0.30042480  0.62911983    -0.19800
H1168       H  0.86348029  0.32734983  0.59782459     0.18000
H1169       H  0.84790117  0.26151545  0.57291965     0.18000
F1170       F  0.86750430  0.28859224  0.54155234    -0.19800
C1171       C  0.83471860  0.52811519  0.60406335    -0.21200
C1172       C  0.82671035  0.53914037  0.59681728    -0.09200
C1173       C  0.83112740  0.54734440  0.57375461     0.29600
C1174       C  0.84330972  0.54456360  0.55856188    -0.21200
C1175       C  0.85090108  0.53319588  0.56579907    -0.09300
C1176       C  0.84651347  0.52504555  0.58876785     0.29600
F1177       F  0.85394542  0.51437392  0.59668506    -0.19800
H1178       H  0.83168585  0.52159156  0.62161575     0.18000
H1179       H  0.84642946  0.55090027  0.54089683     0.18000
F1180       F  0.82386976  0.55817809  0.56589235    -0.19800
C1181       C  0.09316242  0.66039176  0.32162878    -0.21200
C1182       C  0.08666049  0.66228728  0.34412822    -0.09200
C1183       C  0.09200856  0.68099945  0.35231152     0.29600
C1184       C  0.10358043  0.69742590  0.33810546    -0.21200
C1185       C  0.10956043  0.69539831  0.31532084    -0.09300
C1186       C  0.10428648  0.67670030  0.30722538     0.29600
F1187       F  0.11002918  0.67419429  0.28544793    -0.19800
H1188       H  0.08925949  0.64615527  0.31491411     0.18000
H1189       H  0.10741098  0.71169130  0.34463148     0.18000
F1190       F  0.08635676  0.68346673  0.37415123    -0.19800
C1191       C  0.10117287  0.44454060  0.31145980    -0.21200
C1192       C  0.09482803  0.43461137  0.33327957    -0.09200
C1193       C  0.10178447  0.42259877  0.34026595     0.29600
C1194       C  0.11510876  0.42097251  0.32587071    -0.21200
C1195       C  0.12147320  0.43095394  0.30402064    -0.09300
C1196       C  0.11415756  0.44265811  0.29689504     0.29600
F1197       F  0.11996007  0.45282003  0.27617154    -0.19800
H1198       H  0.09602618  0.45384489  0.30557551     0.18000
H1199       H  0.12041633  0.41181981  0.33181744     0.18000
F1200       F  0.09633373  0.41303169  0.36139584    -0.19800
loop_ 
_geom_bond_atom_site_label_1 
_geom_bond_atom_site_label_2 
_geom_bond_distance 
_geom_bond_site_symmetry_2 
_ccdc_geom_bond_type 
N1            N2   1.321       .  A
N1            C5   1.357   1_455  A
N1           Cu9   2.116       .  S
N2            C3   1.337   1_455  A
N2           Cu8   2.044       .  S
C3            C4   1.375       .  A
C3            H6   1.083       .  S
C4            C5   1.395       .  A
C4           C76   1.477       .  S
C5            H7   1.082       .  S
Cu8          N11   2.042       .  S
Cu9          N19   2.120       .  S
Cu10         N12   2.081       .  S
Cu10         N18   2.085       .  S
N11          N12   1.318       .  A
N11          C15   1.337       .  A
N12          C13   1.351       .  A
C13          C14   1.391       .  A
C13          H16   1.081       .  S
C14          C15   1.379       .  A
C14          C28   1.472       .  S
C15          H17   1.082       .  S
N18          N19   1.328       .  A
N18          C22   1.343       .  A
N19          C20   1.353       .  A
C20          C21   1.392       .  A
C20          H23   1.082       .  S
C21          C22   1.381       .  A
C21        C1192   1.489       .  S
C22          H24   1.082       .  S
N25          N26   1.319       .  A
N25          C29   1.350       .  A
N25         Cu33   2.071       .  S
N26          C27   1.339       .  A
N26         Cu32   2.060       .  S
C27          C28   1.382       .  A
C27          H30   1.081       .  S
C28          C29   1.387       .  A
C29          H31   1.082       .  S
Cu32         N35   2.060       .  S
Cu33         N43   2.074       .  S
Cu34         N36   2.102       .  S
Cu34         N42   2.104       .  S
N35          N36   1.321       .  A
N35          C39   1.339   1_455  A
N36          C37   1.355   1_455  A
C37          C38   1.392       .  A
C37          H40   1.082       .  S
C38          C39   1.379       .  A
C38          C52   1.477       .  S
C39          H41   1.083       .  S
N42          N43   1.326       .  A
N42          C46   1.350       .  A
N43          C44   1.343       .  A
C44          C45   1.381       .  A
C44          H47   1.081       .  S
C45          C46   1.388       .  A
C45        C1182   1.482       .  S
C46          H48   1.081       .  S
N49          N50   1.322       .  A
N49          C53   1.355       .  A
N49         Cu57   2.105       .  S
N50          C51   1.339       .  A
N50         Cu56   2.061       .  S
C51          C52   1.379       .  A
C51          H54   1.083       .  S
C52          C53   1.392       .  A
C53          H55   1.082       .  S
Cu56         N59   2.062       .  S
Cu57         N67   2.107       .  S
Cu58         N60   2.078       .  S
Cu58         N66   2.081       .  S
N59          N60   1.319       .  A
N59          C63   1.341       .  A
N60          C61   1.350       .  A
C61          C62   1.389       .  A
C61          H64   1.081       .  S
C62          C63   1.383       .  A
C62          C86   1.476       .  S
C63          H65   1.082       .  S
N66          N67   1.326       .  A
N66          C70   1.343       .  A
N67          C68   1.352       .  A
C68          C69   1.389       .  A
C68          H71   1.081       .  S
C69          C70   1.382       .  A
C69        C1175   1.484       .  S
C70          H72   1.082       .  S
N73          N74   1.321       .  A
N73          C77   1.354       .  A
N73         Cu81   2.097       .  S
N74          C75   1.340       .  A
N74         Cu80   2.067       .  S
C75          C76   1.382       .  A
C75          H78   1.083       .  S
C76          C77   1.391       .  A
C77          H79   1.082       .  S
Cu80         N83   2.066       .  S
Cu81         N91   2.099       .  S
Cu82         N84   2.083       .  S
Cu82         N90   2.085       .  S
N83          N84   1.320       .  A
N83          C87   1.341       .  A
N84          C85   1.351       .  A
C85          C86   1.389       .  A
C85          H88   1.082       .  S
C86          C87   1.382       .  A
C87          H89   1.081       .  S
N90          N91   1.326       .  A
N90          C94   1.345       .  A
N91          C92   1.349       .  A
C92          C93   1.388       .  A
C92          H95   1.081       .  S
C93          C94   1.384       .  A
C93        C1162   1.486       .  S
C94          H96   1.081       .  S
C97          N98   1.366       .  A
C97         N102   1.368       .  A
C97        C1172   1.492       .  S
N98          C99   1.358       .  A
C99         N100   1.354       .  A
C99        C1142   1.481       .  S
N100        C101   1.352       .  A
C101        N102   1.362       .  A
C101       C1152   1.473       .  S
C103        N104   1.363       .  A
C103        N108   1.365       .  A
C103       C1122   1.484       .  S
N104        C105   1.360       .  A
C105        N106   1.357       .  A
C105       C1135   1.485       .  S
N106        C107   1.357       .  A
C107        N108   1.362       .  A
C107       C1155   1.481       .  S
C109        N110   1.369       .  A
C109        N114   1.366       .  A
C109       C1102   1.492       .  S
N110        C111   1.362       .  A
C111        N112   1.352       .  A
C111       C1112   1.476       .  S
N112        C113   1.353       .  A
C113        N114   1.359       .  A
C113       C1145   1.483       .  S
C115        N116   1.364       .  A
C115        N120   1.367       .  A
C115       C1092   1.487       .  S
N116        C117   1.359       .  A
C117        N118   1.355       .  A
C117       C1132   1.484       .  S
N118        C119   1.357       .  A
C119        N120   1.363       .  A
C119       C1115   1.487       .  S
C121        N122   1.367       .  A
C121        N126   1.368       .  A
C121       C1065   1.483       .  S
N122        C123   1.360       .  A
C123        N124   1.352       .  A
C123       C1072   1.484       .  S
N124        C125   1.352       .  A
C125        N126   1.361       .  A
C125       C1082   1.482       .  S
C127        N128   1.367       .  A
C127        N132   1.363       .  A
C127       C1185   1.479       .  S
N128        C129   1.362       .  A
C129        N130   1.354       .  A
C129       C1085   1.484       .  S
N130        C131   1.354       .  A
C131        N132   1.357       .  A
C131       C1052   1.486       .  S
C133        N134   1.366       .  A
C133        N138   1.362       .  A
C133       C1032   1.481       .  S
N134        C135   1.362       .  A
C135        N136   1.356       .  A
C135       C1042   1.478       .  S
N136        C137   1.356       .  A
C137        N138   1.356       .  A
C137       C1075   1.482       .  S
C139        N140   1.367       .  A
C139        N144   1.363       .  A
C139       C1025   1.479       .  S
N140        C141   1.363       .  A
C141        N142   1.353       .  A
C141       C1045   1.479       .  S
N142        C143   1.353       .  A
C143        N144   1.358       .  A
C143       C1055   1.484       .  S
N145        N146   1.322       .  A
N145        C149   1.355       .  A
N145       Cu153   2.110       .  S
N146        C147   1.339       .  A
N146       Cu152   2.062       .  S
C147        C148   1.379   1_545  A
C147        H150   1.083       .  S
C148        C149   1.393   1_565  A
C148        C220   1.477       .  S
C149        H151   1.082       .  S
Cu152       N155   2.064       .  S
Cu153       N163   2.112       .  S
Cu154       N156   2.087       .  S
Cu154       N162   2.089       .  S
N155        N156   1.319       .  A
N155        C159   1.342       .  A
N156        C157   1.351       .  A
C157        C158   1.390       .  A
C157        H160   1.082       .  S
C158        C159   1.383       .  A
C158        C182   1.479       .  S
C159        H161   1.082       .  S
N162        N163   1.325       .  A
N162        C166   1.344       .  A
N163        C164   1.352       .  A
C164        C165   1.395       .  A
C164        H167   1.081       .  S
C165        C166   1.388       .  A
C165       C1012   1.500       .  S
C166        H168   1.080       .  S
N169        N170   1.323       .  A
N169        C173   1.355       .  A
N169       Cu177   2.107       .  S
N170        C171   1.341       .  A
N170       Cu176   2.067       .  S
C171        C172   1.380   1_545  A
C171        H174   1.083   1_545  S
C172        C173   1.392   1_565  A
C172        C196   1.477       .  S
C173        H175   1.082   1_545  S
Cu176       N179   2.067       .  S
Cu177       N187   2.109       .  S
Cu178       N180   2.085       .  S
Cu178       N186   2.087       .  S
N179        N180   1.320       .  A
N179        C183   1.343       .  A
N180        C181   1.351       .  A
C181        C182   1.389       .  A
C181        H184   1.082       .  S
C182        C183   1.384       .  A
C183        H185   1.082       .  S
N186        N187   1.326       .  A
N186        C190   1.346       .  A
N187        C188   1.351       .  A
C188        C189   1.390       .  A
C188        H191   1.081       .  S
C189        C190   1.384       .  A
C189       C1002   1.488       .  S
C190        H192   1.081       .  S
N193        N194   1.321       .  A
N193        C197   1.355       .  A
N193       Cu201   2.106       .  S
N194        C195   1.340       .  A
N194       Cu200   2.061       .  S
C195        C196   1.379       .  A
C195        H198   1.083       .  S
C196        C197   1.393       .  A
C197        H199   1.082       .  S
Cu200       N203   2.061       .  S
Cu201       N211   2.108       .  S
Cu202       N204   2.088       .  S
Cu202       N210   2.091       .  S
N203        N204   1.320       .  A
N203        C207   1.342       .  A
N204        C205   1.350       .  A
C205        C206   1.390       .  A
C205        H208   1.082       .  S
C206        C207   1.381       .  A
C206        C230   1.477       .  S
C207        H209   1.082       .  S
N210        N211   1.327       .  A
N210        C214   1.348       .  A
N211        C212   1.349       .  A
C212        C213   1.388       .  A
C212        H215   1.081       .  S
C213        C214   1.384       .  A
C213        C995   1.487       .  S
C214        H216   1.081       .  S
N217        N218   1.323       .  A
N217        C221   1.355       .  A
N217       Cu225   2.104       .  S
N218        C219   1.340       .  A
N218       Cu224   2.072       .  S
C219        C220   1.381       .  A
C219        H222   1.083       .  S
C220        C221   1.391       .  A
C221        H223   1.082       .  S
Cu224       N227   2.072       .  S
Cu225       N235   2.106       .  S
Cu226       N228   2.077       .  S
Cu226       N234   2.079       .  S
N227        N228   1.320       .  A
N227        C231   1.343       .  A
N228        C229   1.349       .  A
C229        C230   1.387       .  A
C229        H232   1.082       .  S
C230        C231   1.385       .  A
C231        H233   1.082       .  S
N234        N235   1.325       .  A
N234        C238   1.345       .  A
N235        C236   1.350       .  A
C236        C237   1.391       .  A
C236        H239   1.081       .  S
C237        C238   1.384       .  A
C237       C1062   1.488       .  S
C238        H240   1.081       .  S
N241        N242   1.322       .  A
N241        C245   1.355       .  A
N241       Cu249   2.103       .  S
N242        C243   1.339       .  A
N242       Cu248   2.061       .  S
C243        C244   1.378   1_545  A
C243        H246   1.083       .  S
C244        C245   1.391   1_565  A
C244        C316   1.474       .  S
C245        H247   1.082       .  S
Cu248       N251   2.062       .  S
Cu249       N259   2.105       .  S
Cu250       N252   2.077       .  S
Cu250       N258   2.080       .  S
N251        N252   1.319       .  A
N251        C255   1.341       .  A
N252        C253   1.351       .  A
C253        C254   1.388       .  A
C253        H256   1.081       .  S
C254        C255   1.383       .  A
C254        C278   1.476       .  S
C255        H257   1.082       .  S
N258        N259   1.326       .  A
N258        C262   1.342       .  A
N259        C260   1.352       .  A
C260        C261   1.391       .  A
C260        H263   1.082       .  S
C261        C262   1.383       .  A
C261        C982   1.488       .  S
C262        H264   1.083       .  S
N265        N266   1.321       .  A
N265        C269   1.357   1_545  A
N265       Cu273   2.108       .  S
N266        C267   1.338   1_545  A
N266       Cu272   2.054       .  S
C267        C268   1.378       .  A
C267        H270   1.083       .  S
C268        C269   1.394       .  A
C268        C292   1.478       .  S
C269        H271   1.082       .  S
Cu272       N275   2.053       .  S
Cu273       N283   2.111       .  S
Cu274       N276   2.089       .  S
Cu274       N282   2.092       .  S
N275        N276   1.319       .  A
N275        C279   1.339       .  A
N276        C277   1.352       .  A
C277        C278   1.391       .  A
C277        H280   1.082       .  S
C278        C279   1.380       .  A
C279        H281   1.081       .  S
N282        N283   1.328       .  A
N282        C286   1.347       .  A
N283        C284   1.350       .  A
C284        C285   1.387       .  A
C284        H287   1.081       .  S
C285        C286   1.382       .  A
C285        C972   1.483       .  S
C286        H288   1.081       .  S
N289        N290   1.321       .  A
N289        C293   1.356       .  A
N289       Cu297   2.109   1_556  S
N290        C291   1.338       .  A
N290       Cu296   2.058       .  S
C291        C292   1.379       .  A
C291        H294   1.083       .  S
C292        C293   1.394       .  A
C293        H295   1.082       .  S
Cu296       N299   2.059       .  S
Cu297       N307   2.111       .  S
Cu298       N300   2.081       .  S
Cu298       N306   2.083       .  S
N299        N300   1.320   1_556  A
N299        C303   1.341       .  A
N300        C301   1.350       .  A
C301        C302   1.389       .  A
C301        H304   1.082       .  S
C302        C303   1.381   1_554  A
C302        C326   1.474       .  S
C303        H305   1.082       .  S
N306        N307   1.326       .  A
N306        C310   1.344       .  A
N307        C308   1.352       .  A
C308        C309   1.390       .  A
C308        H311   1.082       .  S
C309        C310   1.382       .  A
C309        C962   1.487       .  S
C310        H312   1.082       .  S
N313        N314   1.322       .  A
N313        C317   1.353       .  A
N313       Cu321   2.095   1_556  S
N314        C315   1.340       .  A
N314       Cu320   2.068       .  S
C315        C316   1.381       .  A
C315        H318   1.083       .  S
C316        C317   1.390       .  A
C317        H319   1.082       .  S
Cu320       N323   2.069       .  S
Cu321       N331   2.097       .  S
Cu322       N324   2.077       .  S
Cu322       N330   2.078       .  S
N323        N324   1.320   1_556  A
N323        C327   1.342       .  A
N324        C325   1.349       .  A
C325        C326   1.386       .  A
C325        H328   1.082       .  S
C326        C327   1.383   1_554  A
C327        H329   1.082       .  S
N330        N331   1.325       .  A
N330        C334   1.344       .  A
N331        C332   1.349       .  A
C332        C333   1.388       .  A
C332        H335   1.081       .  S
C333        C334   1.384       .  A
C333       C1035   1.485       .  S
C334        H336   1.081       .  S
C337        N338   1.366       .  A
C337        N342   1.363       .  A
C337       C1165   1.481       .  S
N338        C339   1.362       .  A
C339        N340   1.355       .  A
C339        C955   1.481       .  S
N340        C341   1.354       .  A
C341        N342   1.358       .  A
C341        C942   1.482       .  S
C343        N344   1.365       .  A
C343        N348   1.368       .  A
C343       C1005   1.481       .  S
N344        C345   1.358       .  A
C345        N346   1.355       .  A
C345        C932   1.485       .  S
N346        C347   1.354       .  A
C347        N348   1.363       .  A
C347        C952   1.482       .  S
C349        N350   1.364       .  A
C349        N354   1.365       .  A
C349        C912   1.478       .  S
N350        C351   1.358       .  A
C351        N352   1.354       .  A
C351        C945   1.479       .  S
N352        C353   1.356       .  A
C353        N354   1.360       .  A
C353        C922   1.478       .  S
C355        N356   1.369       .  A
C355        N360   1.369       .  A
C355        C975   1.489       .  S
N356        C357   1.361       .  A
C357        N358   1.350       .  A
C357        C925   1.477       .  S
N358        C359   1.350       .  A
C359        N360   1.360       .  A
C359        C935   1.483       .  S
N361        N362   1.321       .  A
N361        C365   1.352       .  A
N361       Cu369   2.096       .  S
N362        C363   1.339       .  A
N362       Cu368   2.053       .  S
C363        C364   1.378   1_455  A
C363        H366   1.083       .  S
C364        C365   1.390   1_655  A
C364        C436   1.471       .  S
C365        H367   1.082   1_455  S
Cu368       N371   2.053       .  S
Cu369       N379   2.099   1_556  S
Cu370       N372   2.084       .  S
Cu370       N378   2.087       .  S
N371        N372   1.319   1_556  A
N371        C375   1.339       .  A
N372        C373   1.352       .  A
C373        C374   1.390   1_554  A
C373        H376   1.081       .  S
C374        C375   1.380       .  A
C374        C398   1.475       .  S
C375        H377   1.082       .  S
N378        N379   1.326       .  A
N378        C382   1.343       .  A
N379        C380   1.350       .  A
C380        C381   1.391       .  A
C380        H383   1.081       .  S
C381        C382   1.386       .  A
C381        C902   1.492       .  S
C382        H384   1.082       .  S
N385        N386   1.322       .  A
N385        C389   1.354   1_455  A
N385       Cu393   2.100   1_556  S
N386        C387   1.340   1_455  A
N386       Cu392   2.067       .  S
C387        C388   1.381       .  A
C387        H390   1.083       .  S
C388        C389   1.391       .  A
C388        C412   1.476       .  S
C389        H391   1.082       .  S
Cu392       N395   2.067       .  S
Cu393       N403   2.103       .  S
Cu394       N396   2.075       .  S
Cu394       N402   2.077       .  S
N395        N396   1.320   1_556  A
N395        C399   1.341       .  A
N396        C397   1.350       .  A
C397        C398   1.387   1_554  A
C397        H400   1.082       .  S
C398        C399   1.383       .  A
C399        H401   1.081       .  S
N402        N403   1.326       .  A
N402        C406   1.345       .  A
N403        C404   1.349       .  A
C404        C405   1.388       .  A
C404        H407   1.081       .  S
C405        C406   1.381       .  A
C405       C1022   1.483       .  S
C406        H408   1.081       .  S
N409        N410   1.321       .  A
N409        C413   1.355       .  A
N409       Cu417   2.106       .  S
N410        C411   1.338       .  A
N410       Cu416   2.053       .  S
C411        C412   1.378       .  A
C411        H414   1.083       .  S
C412        C413   1.393       .  A
C413        H415   1.082       .  S
Cu416       N419   2.054       .  S
Cu417       N427   2.108       .  S
Cu418       N420   2.084       .  S
Cu418       N426   2.086       .  S
N419        N420   1.320       .  A
N419        C423   1.341       .  A
N420        C421   1.350       .  A
C421        C422   1.389       .  A
C421        H424   1.081       .  S
C422        C423   1.380       .  A
C422        C446   1.472       .  S
C423        H425   1.082       .  S
N426        N427   1.326       .  A
N426        C430   1.344       .  A
N427        C428   1.352       .  A
C428        C429   1.391       .  A
C428        H431   1.081       .  S
C429        C430   1.384       .  A
C429       C1105   1.490       .  S
C430        H432   1.082       .  S
N433        N434   1.323       .  A
N433        C437   1.352       .  A
N433       Cu441   2.089       .  S
N434        C435   1.340       .  A
N434       Cu440   2.070       .  S
C435        C436   1.380       .  A
C435        H438   1.083       .  S
C436        C437   1.387       .  A
C437        H439   1.082       .  S
Cu440       N443   2.070       .  S
Cu441       N451   2.090       .  S
Cu442       N444   2.071       .  S
Cu442       N450   2.072       .  S
N443        N444   1.320       .  A
N443        C447   1.343       .  A
N444        C445   1.347       .  A
C445        C446   1.384       .  A
C445        H448   1.082       .  S
C446        C447   1.384       .  A
C447        H449   1.081       .  S
N450        N451   1.324       .  A
N450        C454   1.344       .  A
N451        C452   1.347       .  A
C452        C453   1.388       .  A
C452        H455   1.081       .  S
C453        C454   1.383       .  A
C453        C915   1.481       .  S
C454        H456   1.082       .  S
N457        N458   1.322       .  A
N457        C461   1.354       .  A
N457       Cu465   2.101       .  S
N458        C459   1.340       .  A
N458       Cu464   2.066       .  S
C459        C460   1.380       .  A
C459        H462   1.083       .  S
C460        C461   1.391       .  A
C460        C532   1.475       .  S
C461        H463   1.082       .  S
Cu464       N467   2.068       .  S
Cu465       N475   2.103       .  S
Cu466       N468   2.081       .  S
Cu466       N474   2.082       .  S
N467        N468   1.320       .  A
N467        C471   1.343       .  A
N468        C469   1.349       .  A
C469        C470   1.387       .  A
C469        H472   1.081       .  S
C470        C471   1.384       .  A
C470        C494   1.476       .  S
C471        H473   1.081       .  S
N474        N475   1.325       .  A
N474        C478   1.346       .  A
N475        C476   1.349       .  A
C476        C477   1.390       .  A
C476        H479   1.081       .  S
C477        C478   1.384       .  A
C477        C892   1.487       .  S
C478        H480   1.081       .  S
N481        N482   1.323       .  A
N481        C485   1.356       .  A
N481       Cu489   2.114       .  S
N482        C483   1.340       .  A
N482       Cu488   2.062       .  S
C483        C484   1.379       .  A
C483        H486   1.083       .  S
C484        C485   1.393       .  A
C484        C508   1.478       .  S
C485        H487   1.082       .  S
Cu488       N491   2.062       .  S
Cu489       N499   2.116       .  S
Cu490       N492   2.085       .  S
Cu490       N498   2.087       .  S
N491        N492   1.320       .  A
N491        C495   1.343       .  A
N492        C493   1.350       .  A
C493        C494   1.389       .  A
C493        H496   1.081       .  S
C494        C495   1.382       .  A
C495        H497   1.081       .  S
N498        N499   1.327       .  A
N498        C502   1.346       .  A
N499        C500   1.353       .  A
C500        C501   1.390       .  A
C500        H503   1.081       .  S
C501        C502   1.382       .  A
C501        C885   1.485       .  S
C502        H504   1.082       .  S
N505        N506   1.322       .  A
N505        C509   1.355       .  A
N505       Cu513   2.112       .  S
N506        C507   1.341       .  A
N506       Cu512   2.066       .  S
C507        C508   1.380       .  A
C507        H510   1.083       .  S
C508        C509   1.393       .  A
C509        H511   1.082       .  S
Cu512       N515   2.066       .  S
Cu513       N523   2.114       .  S
Cu514       N516   2.078       .  S
Cu514       N522   2.080       .  S
N515        N516   1.319       .  A
N515        C519   1.341       .  A
N516        C517   1.351       .  A
C517        C518   1.388       .  A
C517        H520   1.082       .  S
C518        C519   1.383       .  A
C518        C542   1.477       .  S
C519        H521   1.081       .  S
N522        N523   1.326       .  A
N522        C526   1.344       .  A
N523        C524   1.352       .  A
C524        C525   1.392       .  A
C524        H527   1.081       .  S
C525        C526   1.382       .  A
C525        C872   1.489       .  S
C526        H528   1.081       .  S
N529        N530   1.321       .  A
N529        C533   1.354       .  A
N529       Cu537   2.100       .  S
N530        C531   1.340       .  A
N530       Cu536   2.063       .  S
C531        C532   1.380       .  A
C531        H534   1.083       .  S
C532        C533   1.391       .  A
C533        H535   1.082       .  S
Cu536       N539   2.064       .  S
Cu537       N547   2.102       .  S
Cu538       N540   2.086       .  S
Cu538       N546   2.089       .  S
N539        N540   1.320       .  A
N539        C543   1.341       .  A
N540        C541   1.351       .  A
C541        C542   1.390       .  A
C541        H544   1.081       .  S
C542        C543   1.382       .  A
C543        H545   1.081       .  S
N546        N547   1.326       .  A
N546        C550   1.346       .  A
N547        C548   1.350       .  A
C548        C549   1.388       .  A
C548        H551   1.081       .  S
C549        C550   1.384       .  A
C549       C1125   1.486       .  S
C550        H552   1.082       .  S
C553        N554   1.365       .  A
C553        N558   1.367       .  A
C553        C875   1.482       .  S
N554        C555   1.359       .  A
C555        N556   1.356       .  A
C555        C852   1.483       .  S
N556        C557   1.356       .  A
C557        N558   1.362       .  A
C557        C862   1.486       .  S
C559        N560   1.365       .  A
C559        N564   1.370       .  A
C559       C1015   1.485       .  S
N560        C561   1.358       .  A
C561        N562   1.352       .  A
C561        C842   1.480       .  S
N562        C563   1.352       .  A
C563        N564   1.365       .  A
C563        C865   1.480       .  S
C565        N566   1.366       .  A
C565        N570   1.366       .  A
C565        C822   1.482       .  S
N566        C567   1.359       .  A
C567        N568   1.354       .  A
C567        C855   1.484       .  S
N568        C569   1.355       .  A
C569        N570   1.361       .  A
C569        C832   1.485       .  S
C571        N572   1.368       .  A
C571        N576   1.367       .  A
C571        C985   1.484       .  S
N572        C573   1.362       .  A
C573        N574   1.351       .  A
C573        C835   1.474       .  S
N574        C575   1.351       .  A
C575        N576   1.358       .  A
C575        C845   1.480       .  S
C577        N578   1.367       .  A
C577        N582   1.368       .  A
C577        C992   1.486       .  S
N578        C579   1.360       .  A
C579        N580   1.353       .  A
C579        C812   1.481       .  S
N580        C581   1.354       .  A
C581        N582   1.362       .  A
C581        C802   1.489       .  S
C583        N584   1.368       .  A
C583        N588   1.369       .  A
C583        C895   1.488       .  S
N584        C585   1.360       .  A
C585        N586   1.352       .  A
C585        C815   1.482       .  S
N586        C587   1.352       .  A
C587        N588   1.363       .  A
C587        C792   1.492       .  S
C589        N590   1.366       .  A
C589        N594   1.369       .  A
C589        C965   1.495       .  S
N590        C591   1.359       .  A
C591        N592   1.355       .  A
C591        C805   1.484       .  S
N592        C593   1.353       .  A
C593        N594   1.362       .  A
C593        C785   1.477       .  S
C595        N596   1.367       .  A
C595        N600   1.367       .  A
C595        C772   1.486       .  S
N596        C597   1.360       .  A
C597        N598   1.353       .  A
C597        C782   1.478       .  S
N598        C599   1.357       .  A
C599        N600   1.362       .  A
C599        C795   1.490       .  S
N601        N602   1.322       .  A
N601        C605   1.355       .  A
N601       Cu609   2.112   1_556  S
N602        C603   1.341       .  A
N602       Cu608   2.063       .  S
C603        C604   1.380       .  A
C603        H606   1.083       .  S
C604        C605   1.394       .  A
C604        C676   1.477       .  S
C605        H607   1.082       .  S
Cu608       N611   2.064       .  S
Cu609       N619   2.113       .  S
Cu610       N612   2.081       .  S
Cu610       N618   2.083       .  S
N611        N612   1.320   1_556  A
N611        C615   1.343       .  A
N612        C613   1.348       .  A
C613        C614   1.387   1_554  A
C613        H616   1.081       .  S
C614        C615   1.382       .  A
C614        C638   1.474       .  S
C615        H617   1.081       .  S
N618        N619   1.325       .  A
N618        C622   1.346       .  A
N619        C620   1.351       .  A
C620        C621   1.392       .  A
C620        H623   1.081       .  S
C621        C622   1.385       .  A
C621        C775   1.492       .  S
C622        H624   1.082       .  S
N625        N626   1.322       .  A
N625        C629   1.351       .  A
N625       Cu633   2.097   1_556  S
N626        C627   1.340       .  A
N626       Cu632   2.063       .  S
C627        C628   1.379       .  A
C627        H630   1.083       .  S
C628        C629   1.389       .  A
C628        C652   1.469       .  S
C629        H631   1.082       .  S
Cu632       N635   2.065       .  S
Cu633       N643   2.098       .  S
Cu634       N636   2.076       .  S
Cu634       N642   2.078       .  S
N635        N636   1.320   1_556  A
N635        C639   1.343       .  A
N636        C637   1.348       .  A
C637        C638   1.386   1_554  A
C637        H640   1.081       .  S
C638        C639   1.383       .  A
C639        H641   1.081       .  S
N642        N643   1.324       .  A
N642        C646   1.345       .  A
N643        C644   1.349       .  A
C644        C645   1.388       .  A
C644        H647   1.081       .  S
C645        C646   1.383       .  A
C645        C765   1.483       .  S
C646        H648   1.082       .  S
N649        N650   1.321       .  A
N649        C653   1.351       .  A
N649       Cu657   2.090       .  S
N650        C651   1.341       .  A
N650       Cu656   2.065       .  S
C651        C652   1.380       .  A
C651        H654   1.083       .  S
C652        C653   1.388       .  A
C653        H655   1.082       .  S
Cu656       N659   2.065       .  S
Cu657       N667   2.091       .  S
Cu658       N660   2.083       .  S
Cu658       N666   2.085       .  S
N659        N660   1.320       .  A
N659        C663   1.341       .  A
N660        C661   1.350       .  A
C661        C662   1.388       .  A
C661        H664   1.082       .  S
C662        C663   1.382       .  A
C662        C686   1.476       .  S
C663        H665   1.082       .  S
N666        N667   1.325       .  A
N666        C670   1.346       .  A
N667        C668   1.347       .  A
C668        C669   1.386       .  A
C668        H671   1.081       .  S
C669        C670   1.383       .  A
C669        C825   1.481       .  S
C670        H672   1.082       .  S
N673        N674   1.322       .  A
N673        C677   1.355       .  A
N673       Cu681   2.110       .  S
N674        C675   1.340       .  A
N674       Cu680   2.061       .  S
C675        C676   1.379       .  A
C675        H678   1.083       .  S
C676        C677   1.394       .  A
C677        H679   1.082       .  S
Cu680       N683   2.061       .  S
Cu681       N691   2.112       .  S
Cu682       N684   2.083       .  S
Cu682       N690   2.085       .  S
N683        N684   1.319       .  A
N683        C687   1.341       .  A
N684        C685   1.351       .  A
C685        C686   1.389       .  A
C685        H688   1.081       .  S
C686        C687   1.382       .  A
C687        H689   1.082       .  S
N690        N691   1.326       .  A
N690        C694   1.346       .  A
N691        C692   1.351       .  A
C692        C693   1.391       .  A
C692        H695   1.081       .  S
C693        C694   1.385       .  A
C693       C1095   1.491       .  S
C694        H696   1.081       .  S
C697        N698   1.367       .  A
C697        N702   1.368       .  A
C697        C882   1.495       .  S
N698        C699   1.362       .  A
C699        N700   1.356       .  A
C699        C745   1.487       .  S
N700        C701   1.355       .  A
C701        N702   1.361       .  A
C701        C752   1.480       .  S
C703        N704   1.367       .  A
C703        N708   1.369       .  A
C703       C1195   1.492       .  S
N704        C705   1.360       .  A
C705        N706   1.353       .  A
C705        C732   1.488       .  S
N706        C707   1.351       .  A
C707        N708   1.362       .  A
C707        C755   1.474       .  S
C709        N710   1.366       .  A
C709        N714   1.366       .  A
C709        C762   1.485       .  S
N710        C711   1.360       .  A
C711        N712   1.355       .  A
C711        C742   1.490       .  S
N712        C713   1.355       .  A
C713        N714   1.361       .  A
C713        C722   1.484       .  S
C715        N716   1.367       .  A
C715        N720   1.366       .  A
C715        C905   1.482       .  S
N716        C717   1.361       .  A
C717        N718   1.352       .  A
C717        C725   1.474       .  S
N718        C719   1.352       .  A
C719        N720   1.358       .  A
C719        C735   1.484       .  S
C721        C722   1.407       .  A
C721        C726   1.408       .  A
C721        H728   1.083       .  S
C722        C723   1.408       .  A
C723        C724   1.394       .  A
C723        F730   1.358       .  S
C724        C725   1.401       .  A
C724        H729   1.084       .  S
C725        C726   1.407       .  A
C726        F727   1.357       .  S
C731        C732   1.408       .  A
C731        C736   1.407       .  A
C731        H738   1.083       .  S
C732        C733   1.410       .  A
C733        C734   1.392       .  A
C733        F740   1.358       .  S
C734        C735   1.403       .  A
C734        H739   1.084       .  S
C735        C736   1.409       .  A
C736        F737   1.357       .  S
C741        C742   1.405       .  A
C741        C746   1.395       .  A
C741        H748   1.083       .  S
C742        C743   1.411       .  A
C743        C744   1.409       .  A
C743        F750   1.357       .  S
C744        C745   1.408       .  A
C744        H749   1.083       .  S
C745        C746   1.407       .  A
C746        F747   1.358       .  S
C751        C752   1.404       .  A
C751        C756   1.399       .  A
C751        H758   1.084       .  S
C752        C753   1.407       .  A
C753        C754   1.406       .  A
C753        F760   1.357       .  S
C754        C755   1.405       .  A
C754        H759   1.083       .  S
C755        C756   1.404       .  A
C756        F757   1.358       .  S
C761        C762   1.406       .  A
C761        C766   1.401       .  A
C761        H768   1.083       .  S
C762        C763   1.408       .  A
C763        C764   1.402       .  A
C763        F770   1.357       .  S
C764        C765   1.406       .  A
C764        H769   1.083       .  S
C765        C766   1.405       .  A
C766        F767   1.357       .  S
C771        C772   1.405       .  A
C771        C776   1.404       .  A
C771        H778   1.083       .  S
C772        C773   1.407       .  A
C773        C774   1.403       .  A
C773        F780   1.358       .  S
C774        C775   1.408       .  A
C774        H779   1.083       .  S
C775        C776   1.409       .  A
C776        F777   1.357       .  S
C781        C782   1.404       .  A
C781        C786   1.405       .  A
C781        H788   1.083       .  S
C782        C783   1.406       .  A
C783        C784   1.401       .  A
C783        F790   1.358       .  S
C784        C785   1.404       .  A
C784        H789   1.084       .  S
C785        C786   1.406       .  A
C786        F787   1.357       .  S
C791        C792   1.409       .  A
C791        C796   1.410       .  A
C791        H798   1.083       .  S
C792        C793   1.412       .  A
C793        C794   1.392       .  A
C793        F800   1.358       .  S
C794        C795   1.403       .  A
C794        H799   1.083       .  S
C795        C796   1.411       .  A
C796        F797   1.357       .  S
C801        C802   1.406       .  A
C801        C806   1.392       .  A
C801        H808   1.083       .  S
C802        C803   1.410       .  A
C803        C804   1.410       .  A
C803        F810   1.357       .  S
C804        C805   1.408       .  A
C804        H809   1.083       .  S
C805        C806   1.405       .  A
C806        F807   1.358       .  S
C811        C812   1.407       .  A
C811        C816   1.408       .  A
C811        H818   1.083       .  S
C812        C813   1.406       .  A
C813        C814   1.393       .  A
C813        F820   1.358       .  S
C814        C815   1.404       .  A
C814        H819   1.084       .  S
C815        C816   1.409       .  A
C816        F817   1.357       .  S
C821        C822   1.405       .  A
C821        C826   1.399       .  A
C821        H828   1.083       .  S
C822        C823   1.407       .  A
C823        C824   1.402       .  A
C823        F830   1.357       .  S
C824        C825   1.405       .  A
C824        H829   1.083       .  S
C825        C826   1.406       .  A
C826        F827   1.357       .  S
C831        C832   1.405       .  A
C831        C836   1.393       .  A
C831        H838   1.084       .  S
C832        C833   1.410       .  A
C833        C834   1.409       .  A
C833        F840   1.357       .  S
C834        C835   1.406       .  A
C834        H839   1.083       .  S
C835        C836   1.403       .  A
C836        F837   1.358       .  S
C841        C842   1.407       .  A
C841        C846   1.408       .  A
C841        H848   1.083       .  S
C842        C843   1.405       .  A
C843        C844   1.391       .  A
C843        F850   1.358       .  S
C844        C845   1.403       .  A
C844        H849   1.084       .  S
C845        C846   1.408       .  A
C846        F847   1.357       .  S
C851        C852   1.403       .  A
C851        C856   1.394       .  A
C851        H858   1.084       .  S
C852        C853   1.410       .  A
C853        C854   1.408       .  A
C853        F860   1.357       .  S
C854        C855   1.408       .  A
C854        H859   1.083       .  S
C855        C856   1.407       .  A
C856        F857   1.358       .  S
C861        C862   1.405       .  A
C861        C866   1.397       .  A
C861        H868   1.084       .  S
C862        C863   1.409       .  A
C863        C864   1.410       .  A
C863        F870   1.357       .  S
C864        C865   1.407       .  A
C864        H869   1.083       .  S
C865        C866   1.405       .  A
C866        F867   1.358       .  S
C871        C872   1.405       .  A
C871        C876   1.404       .  A
C871        H878   1.083       .  S
C872        C873   1.411       .  A
C873        C874   1.401       .  A
C873        F880   1.357       .  S
C874        C875   1.402       .  A
C874        H879   1.083       .  S
C875        C876   1.408       .  A
C876        F877   1.357       .  S
C881        C882   1.407       .  A
C881        C886   1.403       .  A
C881        H888   1.083       .  S
C882        C883   1.413       .  A
C883        C884   1.405       .  A
C883        F890   1.357       .  S
C884        C885   1.403       .  A
C884        H889   1.083       .  S
C885        C886   1.406       .  A
C886        F887   1.357       .  S
C891        C892   1.404       .  A
C891        C896   1.401       .  A
C891        H898   1.083       .  S
C892        C893   1.410       .  A
C893        C894   1.404       .  A
C893        F900   1.357       .  S
C894        C895   1.406       .  A
C894        H899   1.083       .  S
C895        C896   1.409       .  A
C896        F897   1.357       .  S
C901        C902   1.406       .  A
C901        C906   1.396       .  A
C901        H908   1.082       .  S
C902        C903   1.412       .  A
C903        C904   1.406       .  A
C903        F910   1.356       .  S
C904        C905   1.406       .  A
C904        H909   1.084       .  S
C905        C906   1.405       .  A
C906        F907   1.358       .  S
C911        C912   1.405       .  A
C911        C916   1.399       .  A
C911        H918   1.083       .  S
C912        C913   1.405       .  A
C913        C914   1.400       .  A
C913        F920   1.357       .  S
C914        C915   1.406       .  A
C914        H919   1.083       .  S
C915        C916   1.407       .  A
C916        F917   1.357       .  S
C921        C922   1.401       .  A
C921        C926   1.392       .  A
C921        H928   1.084       .  S
C922        C923   1.409       .  A
C923        C924   1.409       .  A
C923        F930   1.357       .  S
C924        C925   1.406       .  A
C924        H929   1.083       .  S
C925        C926   1.406       .  A
C926        F927   1.358       .  S
C931        C932   1.403       .  A
C931        C936   1.391       .  A
C931        H938   1.084       .  S
C932        C933   1.411       .  A
C933        C934   1.409       .  A
C933        F940   1.357       .  S
C934        C935   1.406       .  A
C934        H939   1.083       .  S
C935        C936   1.407       .  A
C936        F937   1.358       .  S
C941        C942   1.407       .  A
C941        C946   1.405       .  A
C941        H948   1.083       .  S
C942        C943   1.407       .  A
C943        C944   1.394       .  A
C943        F950   1.358       .  S
C944        C945   1.403       .  A
C944        H949   1.084       .  S
C945        C946   1.408       .  A
C946        F947   1.357       .  S
C951        C952   1.404       .  A
C951        C956   1.395       .  A
C951        H958   1.084       .  S
C952        C953   1.407       .  A
C953        C954   1.408       .  A
C953        F960   1.357       .  S
C954        C955   1.407       .  A
C954        H959   1.083       .  S
C955        C956   1.406       .  A
C956        F957   1.358       .  S
C961        C962   1.403       .  A
C961        C966   1.399       .  A
C961        H968   1.083       .  S
C962        C963   1.407       .  A
C963        C964   1.406       .  A
C963        F970   1.357       .  S
C964        C965   1.410       .  A
C964        H969   1.083       .  S
C965        C966   1.411       .  A
C966        F967   1.357       .  S
C971        C972   1.405       .  A
C971        C976   1.404       .  A
C971        H978   1.083       .  S
C972        C973   1.405       .  A
C973        C974   1.401       .  A
C973        F980   1.357       .  S
C974        C975   1.407       .  A
C974        H979   1.083       .  S
C975        C976   1.409       .  A
C976        F977   1.357       .  S
C981        C982   1.405       .  A
C981        C986   1.396       .  A
C981        H988   1.083       .  S
C982        C983   1.409       .  A
C983        C984   1.406       .  A
C983        F990   1.357       .  S
C984        C985   1.407       .  A
C984        H989   1.083       .  S
C985        C986   1.406       .  A
C986        F987   1.358       .  S
C991        C992   1.406       .  A
C991        C996   1.401       .  A
C991        H998   1.083       .  S
C992        C993   1.408       .  A
C993        C994   1.403       .  A
C993       F1000   1.357       .  S
C994        C995   1.406       .  A
C994        H999   1.083       .  S
C995        C996   1.407       .  A
C996        F997   1.357       .  S
C1001      C1002   1.404       .  A
C1001      C1006   1.402       .  A
C1001      H1008   1.083       .  S
C1002      C1003   1.410       .  A
C1003      C1004   1.403       .  A
C1003      F1010   1.357       .  S
C1004      C1005   1.403       .  A
C1004      H1009   1.083       .  S
C1005      C1006   1.407       .  A
C1006      F1007   1.358       .  S
C1011      C1012   1.410       .  A
C1011      C1016   1.407       .  A
C1011      H1018   1.082       .  S
C1012      C1013   1.414       .  A
C1013      C1014   1.400       .  A
C1013      F1020   1.356       .  S
C1014      C1015   1.402       .  A
C1014      H1019   1.084       .  S
C1015      C1016   1.405       .  A
C1016      F1017   1.357       .  S
C1021      C1022   1.408       .  A
C1021      C1026   1.403       .  A
C1021      H1028   1.083       .  S
C1022      C1023   1.405       .  A
C1023      C1024   1.399       .  A
C1023      F1030   1.357       .  S
C1024      C1025   1.405       .  A
C1024      H1029   1.084       .  S
C1025      C1026   1.405       .  A
C1026      F1027   1.357       .  S
C1031      C1032   1.404       .  A
C1031      C1036   1.398       .  A
C1031      H1038   1.083       .  S
C1032      C1033   1.407       .  A
C1033      C1034   1.403       .  A
C1033      F1040   1.357       .  S
C1034      C1035   1.406       .  A
C1034      H1039   1.083       .  S
C1035      C1036   1.408       .  A
C1036      F1037   1.357       .  S
C1041      C1042   1.406       .  A
C1041      C1046   1.407       .  A
C1041      H1048   1.083       .  S
C1042      C1043   1.404       .  A
C1043      C1044   1.396       .  A
C1043      F1050   1.358       .  S
C1044      C1045   1.405       .  A
C1044      H1049   1.084       .  S
C1045      C1046   1.407       .  A
C1046      F1047   1.357       .  S
C1051      C1052   1.405       .  A
C1051      C1056   1.391       .  A
C1051      H1058   1.083       .  S
C1052      C1053   1.411       .  A
C1053      C1054   1.405       .  A
C1053      F1060   1.357       .  S
C1054      C1055   1.407       .  A
C1054      H1059   1.083       .  S
C1055      C1056   1.407       .  A
C1056      F1057   1.358       .  S
C1061      C1062   1.406       .  A
C1061      C1066   1.403       .  A
C1061      H1068   1.083       .  S
C1062      C1063   1.410       .  A
C1063      C1064   1.401       .  A
C1063      F1070   1.357       .  S
C1064      C1065   1.404       .  A
C1064      H1069   1.083       .  S
C1065      C1066   1.408       .  A
C1066      F1067   1.357       .  S
C1071      C1072   1.406       .  A
C1071      C1076   1.407       .  A
C1071      H1078   1.083       .  S
C1072      C1073   1.409       .  A
C1073      C1074   1.392       .  A
C1073      F1080   1.358       .  S
C1074      C1075   1.401       .  A
C1074      H1079   1.084       .  S
C1075      C1076   1.411       .  A
C1076      F1077   1.357       .  S
C1081      C1082   1.403       .  A
C1081      C1086   1.392       .  A
C1081      H1088   1.084       .  S
C1082      C1083   1.408       .  A
C1083      C1084   1.409       .  A
C1083      F1090   1.357       .  S
C1084      C1085   1.408       .  A
C1084      H1089   1.083       .  S
C1085      C1086   1.407       .  A
C1086      F1087   1.358       .  S
C1091      C1092   1.404       .  A
C1091      C1096   1.403       .  A
C1091      H1098   1.083       .  S
C1092      C1093   1.409       .  A
C1093      C1094   1.402       .  A
C1093      F1100   1.357       .  S
C1094      C1095   1.405       .  A
C1094      H1099   1.083       .  S
C1095      C1096   1.411       .  A
C1096      F1097   1.357       .  S
C1101      C1102   1.408       .  A
C1101      C1106   1.405       .  A
C1101      H1108   1.083       .  S
C1102      C1103   1.410       .  A
C1103      C1104   1.399       .  A
C1103      F1110   1.357       .  S
C1104      C1105   1.405       .  A
C1104      H1109   1.083       .  S
C1105      C1106   1.408       .  A
C1106      F1107   1.357       .  S
C1111      C1112   1.406       .  A
C1111      C1116   1.409       .  A
C1111      H1118   1.083       .  S
C1112      C1113   1.403       .  A
C1113      C1114   1.396       .  A
C1113      F1120   1.358       .  S
C1114      C1115   1.406       .  A
C1114      H1119   1.084       .  S
C1115      C1116   1.410       .  A
C1116      F1117   1.357       .  S
C1121      C1122   1.406       .  A
C1121      C1126   1.402       .  A
C1121      H1128   1.083       .  S
C1122      C1123   1.406       .  A
C1123      C1124   1.402       .  A
C1123      F1130   1.357       .  S
C1124      C1125   1.406       .  A
C1124      H1129   1.083       .  S
C1125      C1126   1.407       .  A
C1126      F1127   1.357       .  S
C1131      C1132   1.406       .  A
C1131      C1136   1.404       .  A
C1131      H1138   1.083       .  S
C1132      C1133   1.407       .  A
C1133      C1134   1.397       .  A
C1133      F1140   1.358       .  S
C1134      C1135   1.405       .  A
C1134      H1139   1.084       .  S
C1135      C1136   1.410       .  A
C1136      F1137   1.357       .  S
C1141      C1142   1.403       .  A
C1141      C1146   1.392       .  A
C1141      H1148   1.084       .  S
C1142      C1143   1.409       .  A
C1143      C1144   1.407       .  A
C1143      F1150   1.357       .  S
C1144      C1145   1.408       .  A
C1144      H1149   1.083       .  S
C1145      C1146   1.407       .  A
C1146      F1147   1.358       .  S
C1151      C1152   1.402       .  A
C1151      C1156   1.398       .  A
C1151      H1158   1.084       .  S
C1152      C1153   1.406       .  A
C1153      C1154   1.406       .  A
C1153      F1160   1.357       .  S
C1154      C1155   1.406       .  A
C1154      H1159   1.083       .  S
C1155      C1156   1.407       .  A
C1156      F1157   1.358       .  S
C1161      C1162   1.405       .  A
C1161      C1166   1.398       .  A
C1161      H1168   1.083       .  S
C1162      C1163   1.409       .  A
C1163      C1164   1.404       .  A
C1163      F1170   1.357       .  S
C1164      C1165   1.405       .  A
C1164      H1169   1.083       .  S
C1165      C1166   1.406       .  A
C1166      F1167   1.357       .  S
C1171      C1172   1.407       .  A
C1171      C1176   1.397       .  A
C1171      H1178   1.083       .  S
C1172      C1173   1.412       .  A
C1173      C1174   1.406       .  A
C1173      F1180   1.357       .  S
C1174      C1175   1.405       .  A
C1174      H1179   1.083       .  S
C1175      C1176   1.406       .  A
C1176      F1177   1.357       .  S
C1181      C1182   1.405       .  A
C1181      C1186   1.397       .  A
C1181      H1188   1.083       .  S
C1182      C1183   1.407       .  A
C1183      C1184   1.402       .  A
C1183      F1190   1.357       .  S
C1184      C1185   1.405       .  A
C1184      H1189   1.083       .  S
C1185      C1186   1.406       .  A
C1186      F1187   1.358       .  S
C1191      C1192   1.405       .  A
C1191      C1196   1.399       .  A
C1191      H1198   1.083       .  S
C1192      C1193   1.408       .  A
C1193      C1194   1.406       .  A
C1193      F1200   1.357       .  S
C1194      C1195   1.408       .  A
C1194      H1199   1.083       .  S
C1195      C1196   1.410       .  A
C1196      F1197   1.358       .  S
