geometry optimzed in LAMMPS
_audit_creation_date              2020-12-01 
_audit_creation_method            'lammps2cif' 
_symmetry_space_group_name_H-M    'P1' 
_symmetry_Int_Tables_number       1 
_symmetry_cell_setting            triclinic 
loop_ 
_symmetry_equiv_pos_as_xyz 
  x,y,z 
_cell_length_a                    52.41144454 
_cell_length_b                    52.28429156624139 
_cell_length_c                    26.370967981010747 
_cell_angle_alpha                 90.16483503944539 
_cell_angle_beta                  89.82124834993921 
_cell_angle_gamma                 90.00181528770676 
loop_ 
_atom_site_label 
_atom_site_type_symbol 
_atom_site_fract_x 
_atom_site_fract_y 
_atom_site_fract_z 
_atom_site_charge 
O1          O  0.39570021  0.90831680  0.98713499    -0.74000
O2          O  0.39264766  0.83491848  0.48690957    -0.74000
O3          O  0.39406251  0.87141075  0.41398432    -0.74100
O4          O  0.39417432  0.87159834  0.05993246    -0.74100
O5          O  0.35166673  0.87361705  0.06030541    -0.74100
O6          O  0.35153648  0.87287757  0.41438714    -0.74000
O7          O  0.35022491  0.83666364  0.98834288    -0.74000
O8          O  0.35312472  0.91006602  0.48703437    -0.74100
Ni9        Ni  0.39560677  0.87148678  0.48692243     1.25400
Ni10       Ni  0.35007145  0.87337091  0.48742261     1.25400
C11         C  0.37491357  0.92123137  0.48740045     0.88200
C12         C  0.37104663  0.82380188  0.98836956     0.88100
C13         C  0.37278011  0.87195949  0.39015754     0.88100
C14         C  0.37291758  0.87244800  0.08413181     0.88300
O15         O  0.39555175  0.90742076  0.23772853    -0.74000
O16         O  0.39269729  0.83409570  0.23631277    -0.74000
O17         O  0.39413863  0.87106291  0.16402130    -0.74100
O18         O  0.39401833  0.87059062  0.30994641    -0.74100
O19         O  0.35150804  0.87248596  0.31022897    -0.74100
O20         O  0.35161357  0.87257773  0.16429389    -0.74000
O21         O  0.35017645  0.83573237  0.23730142    -0.74000
O22         O  0.35302319  0.90920082  0.23767401    -0.74100
Ni23       Ni  0.39559255  0.87071613  0.23694993     1.25400
Ni24       Ni  0.35006072  0.87253720  0.23729458     1.25400
C25         C  0.37479896  0.92036940  0.23812078     0.88200
C26         C  0.37099107  0.82282954  0.23726438     0.88100
C27         C  0.37288927  0.87201212  0.14014220     0.88100
C28         C  0.37276230  0.87162661  0.33411461     0.88300
O29         O  0.35557534  0.96255462  0.98912134    -0.74000
O30         O  0.35923747  0.03590871  0.48978927    -0.74000
O31         O  0.35739737  0.99921372  0.41670334    -0.74100
O32         O  0.35740802  0.99912131  0.06263138    -0.74100
O33         O  0.39989904  0.99686854  0.06243345    -0.74100
O34         O  0.39991118  0.99742577  0.41650179    -0.74000
O35         O  0.40171168  0.03402293  0.99049687    -0.74000
O36         O  0.39806717  0.96046254  0.48850281    -0.74100
Ni37       Ni  0.35590085  0.99933051  0.98963094     1.25400
Ni38       Ni  0.40141149  0.99718219  0.98950052     1.23000
C39         C  0.37625301  0.94947023  0.98834795     0.88200
C40         C  0.38101084  0.04709240  0.99005134     0.88100
C41         C  0.37865279  0.99816176  0.39257858     0.88100
C42         C  0.37864082  0.99780789  0.08655194     0.88300
O43         O  0.35544623  0.96160521  0.23970081    -0.74000
O44         O  0.35929911  0.03486244  0.23914025    -0.74000
O45         O  0.35735341  0.99816199  0.16668743    -0.74100
O46         O  0.35739199  0.99860616  0.31261393    -0.74100
O47         O  0.39987850  0.99620992  0.31243439    -0.74100
O48         O  0.39986688  0.99625740  0.16648860    -0.74000
O49         O  0.40182817  0.03272389  0.23982594    -0.74000
O50         O  0.39795946  0.95948413  0.23908375    -0.74100
Ni51       Ni  0.35586250  0.99835946  0.23961613     1.25400
Ni52       Ni  0.40138779  0.99605280  0.23947443     1.25400
C53         C  0.37610253  0.94849078  0.23905063     0.88200
C54         C  0.38117272  0.04579931  0.23917866     0.88100
C55         C  0.37862042  0.99737545  0.14257159     0.88100
C56         C  0.37864020  0.99765770  0.33654648     0.88300
O57         O  0.98340917  0.55694818  0.02875903    -0.74000
O58         O  0.90998807  0.55765487  0.52651653    -0.74000
O59         O  0.94714202  0.55723812  0.45490897    -0.74100
O60         O  0.94625369  0.55717766  0.10085756    -0.74100
O61         O  0.94689483  0.59980888  0.10121569    -0.74100
O62         O  0.94710084  0.59987624  0.45532188    -0.74000
O63         O  0.91036831  0.59995189  0.02812280    -0.74000
O64         O  0.98363233  0.59960627  0.52853785    -0.74100
Ni65       Ni  0.94669292  0.55573836  0.52781412     1.25400
Ni66       Ni  0.94702636  0.60130755  0.52832961     1.25400
C67         C  0.99560220  0.57823525  0.52902523     0.88200
C68         C  0.89781797  0.57892925  0.02633415     0.88100
C69         C  0.94704297  0.57857585  0.43108591     0.88100
C70         C  0.94670402  0.57848494  0.12506978     0.88300
O71         O  0.98365871  0.55710306  0.27867728    -0.74000
O72         O  0.91025913  0.55746662  0.27687893    -0.74000
O73         O  0.94725578  0.55717922  0.20499448    -0.74100
O74         O  0.94658439  0.55728067  0.35089351    -0.74100
O75         O  0.94699570  0.59993412  0.35119814    -0.74100
O76         O  0.94721581  0.59983429  0.20524778    -0.74000
O77         O  0.91050559  0.60012598  0.27800302    -0.74000
O78         O  0.98377190  0.59976251  0.27855091    -0.74100
Ni79       Ni  0.94693922  0.55573984  0.27791282     1.25400
Ni80       Ni  0.94713866  0.60141444  0.27826512     1.25400
C81         C  0.99578229  0.57841175  0.27903118     0.88200
C82         C  0.89832772  0.57888384  0.27658316     0.88100
C83         C  0.94707757  0.57849764  0.18109889     0.88100
C84         C  0.94685281  0.57860176  0.37506451     0.88300
O85         O  0.03558597  0.59974608  0.03059659    -0.74000
O86         O  0.10888440  0.60067846  0.53064150    -0.74000
O87         O  0.07233811  0.60017283  0.45774977    -0.74100
O88         O  0.07219692  0.60014476  0.10370886    -0.74100
O89         O  0.07236827  0.55748848  0.10350598    -0.74100
O90         O  0.07307904  0.55752328  0.45762039    -0.74000
O91         O  0.10935268  0.55805460  0.03154324    -0.74000
O92         O  0.03599804  0.55707170  0.52991523    -0.74100
Ni93       Ni  0.07219758  0.60170865  0.03069630     1.25400
Ni94       Ni  0.07270209  0.55603045  0.03059557     1.25400
C95         C  0.02371366  0.57831380  0.02991004     0.88200
C96         C  0.12113127  0.57955217  0.03160759     0.88100
C97         C  0.07269553  0.57883438  0.43366282     0.88100
C98         C  0.07239555  0.57880969  0.12762581     0.88300
O99         O  0.03589219  0.59984960  0.28071319    -0.74000
O100        O  0.10919594  0.60014700  0.28037422    -0.74000
O101        O  0.07250321  0.60009939  0.20776465    -0.74100
O102        O  0.07258490  0.60009922  0.35364798    -0.74100
O103        O  0.07252485  0.55746269  0.35354471    -0.74100
O104        O  0.07306766  0.55746614  0.20758546    -0.74000
O105        O  0.10947049  0.55782124  0.28133406    -0.74000
O106        O  0.03610393  0.55719439  0.28002481    -0.74100
Ni107      Ni  0.07253865  0.60154490  0.28066588     1.25400
Ni108      Ni  0.07280556  0.55597672  0.28059315     1.25400
C109        C  0.02392749  0.57846305  0.27999778     0.88200
C110        C  0.12169664  0.57907122  0.28119001     0.88100
C111        C  0.07267916  0.57878472  0.18364623     0.88100
C112        C  0.07260659  0.57879822  0.37763058     0.88300
O113        O  0.64354328  0.96414943  0.01362052    -0.74000
O114        O  0.64686951  0.03749092  0.51372959    -0.74000
O115        O  0.64525635  0.00081825  0.44072171    -0.74100
O116        O  0.64512016  0.00080616  0.08661973    -0.74100
O117        O  0.68764081  0.99909304  0.08636895    -0.74100
O118        O  0.68775926  0.99869466  0.44042707    -0.74000
O119        O  0.68939097  0.03549354  0.01265879    -0.74000
O120        O  0.68606856  0.96231249  0.51372829    -0.74100
Ni121      Ni  0.64368900  0.00092183  0.51370645     1.25400
Ni122      Ni  0.68922582  0.99886137  0.51336516     1.25400
C123        C  0.66426818  0.95123215  0.51370462     0.88200
C124        C  0.66866955  0.04848892  0.01251403     0.88100
C125        C  0.66651032  0.99976162  0.41655328     0.88100
C126        C  0.66636473  0.99984600  0.11051293     0.88300
O127        O  0.64348992  0.96389474  0.26348700    -0.74000
O128        O  0.64691194  0.03693228  0.26412978    -0.74000
O129        O  0.64511636  0.00057965  0.19079154    -0.74100
O130        O  0.64520886  0.00039319  0.33673055    -0.74100
O131        O  0.68772629  0.99906018  0.33624487    -0.74100
O132        O  0.68759487  0.99827692  0.19033081    -0.74000
O133        O  0.68911790  0.03519270  0.26204506    -0.74000
O134        O  0.68603158  0.96205723  0.26388958    -0.74100
Ni135      Ni  0.64367937  0.00050777  0.26382528     1.25400
Ni136      Ni  0.68912794  0.99856615  0.26320751     1.25400
C137        C  0.66423575  0.95097480  0.26366596     0.88200
C138        C  0.66850230  0.04834823  0.26220717     0.88100
C139        C  0.66634638  0.99955437  0.16653461     0.88100
C140        C  0.66649133  0.99974985  0.36052049     0.88300
O141        O  0.68381787  0.91016141  0.01386050    -0.74000
O142        O  0.68056741  0.83700920  0.51180587    -0.74000
O143        O  0.68229818  0.87390559  0.44013290    -0.74100
O144        O  0.68222670  0.87322374  0.08603774    -0.74100
O145        O  0.63974786  0.87548417  0.08646059    -0.74100
O146        O  0.63977787  0.87520502  0.44052667    -0.74000
O147        O  0.63834121  0.83868249  0.01392672    -0.74000
O148        O  0.64127717  0.91202850  0.51340614    -0.74100
Ni149      Ni  0.68373471  0.87347724  0.01302361     1.25400
Ni150      Ni  0.63828721  0.87538227  0.01355021     1.25400
C151        C  0.66306132  0.92310000  0.01367926     0.88200
C152        C  0.65894814  0.82550261  0.01263266     0.88100
C153        C  0.66103553  0.87453672  0.41630446     0.88100
C154        C  0.66099889  0.87433964  0.11028073     0.88300
O155        O  0.68381520  0.91012507  0.26373427    -0.74000
O156        O  0.68077744  0.83706306  0.26202414    -0.74000
O157        O  0.68231313  0.87381067  0.19011174    -0.74100
O158        O  0.68228308  0.87335225  0.33605478    -0.74100
O159        O  0.63979758  0.87556586  0.33647232    -0.74100
O160        O  0.63978609  0.87492707  0.19058019    -0.74000
O161        O  0.63852228  0.83865117  0.26435995    -0.74000
O162        O  0.64126883  0.91184701  0.26317772    -0.74100
Ni163      Ni  0.68379861  0.87352731  0.26301354     1.25400
Ni164      Ni  0.63833087  0.87530765  0.26361230     1.25400
C165        C  0.66303655  0.92298828  0.26353687     0.88200
C166        C  0.65919919  0.82558464  0.26314676     0.88100
C167        C  0.66102972  0.87434860  0.16631491     0.88100
C168        C  0.66104536  0.87448265  0.36028703     0.88300
O169        O  0.38044532  0.25182254  0.03735542    -0.74000
O170        O  0.37849114  0.32526399  0.04783534    -0.74000
O171        O  0.34310389  0.28730672  0.03993669    -0.74100
O172        O  0.41604702  0.28937986  0.04635205    -0.74100
O173        O  0.41781069  0.29335212  0.46211749    -0.74100
O174        O  0.34482847  0.28948191  0.45571935    -0.74000
O175        O  0.37900803  0.32769149  0.46387042    -0.74000
O176        O  0.38328171  0.25480443  0.45304402    -0.74100
Ni177      Ni  0.37948948  0.28836610  0.04589560     1.25400
Ni178      Ni  0.38135168  0.29143749  0.45572622     1.25400
C179        C  0.38196179  0.24124342  0.49330529     0.88200
C180        C  0.37808339  0.33871163  0.50724406     0.88100
C181        C  0.33187411  0.28779033  0.99689345     0.88100
C182        C  0.42893127  0.29186934  0.00536823     0.88300
O183        O  0.34411089  0.28795231  0.20555636    -0.74000
O184        O  0.41705024  0.29063122  0.20555663    -0.74000
O185        O  0.38195572  0.25273954  0.19982880    -0.74100
O186        O  0.37905229  0.32587596  0.21129149    -0.74100
O187        O  0.37939103  0.32287560  0.29566705    -0.74100
O188        O  0.38108757  0.24965571  0.28424531    -0.74000
O189        O  0.41691963  0.28689342  0.28984970    -0.74000
O190        O  0.34378973  0.28512394  0.28979402    -0.74100
Ni191      Ni  0.38057147  0.28944234  0.20257952     1.25400
Ni192      Ni  0.38034296  0.28607470  0.29292483     1.25400
C193        C  0.33186006  0.28588706  0.24747653     0.88200
C194        C  0.42898242  0.28884406  0.24768368     0.88100
C195        C  0.38171213  0.23921540  0.24025503     0.88100
C196        C  0.37850247  0.33637427  0.25522251     0.88300
O197        O  0.36045928  0.61756571  0.46942260    -0.74000
O198        O  0.35958230  0.54459619  0.47346116    -0.74000
O199        O  0.32360766  0.58187616  0.48454528    -0.74100
O200        O  0.39658165  0.58067459  0.46186235    -0.74100
O201        O  0.40230223  0.58307853  0.04508604    -0.74100
O202        O  0.33009151  0.58247102  0.06803952    -0.74000
O203        O  0.36688798  0.54554287  0.05670504    -0.74000
O204        O  0.36622307  0.61944556  0.05313609    -0.74100
Ni205      Ni  0.35976737  0.58110423  0.46940958     1.25400
Ni206      Ni  0.36651021  0.58262188  0.05875986     1.25400
C207        C  0.36382821  0.63057472  0.01001655     0.88200
C208        C  0.36359484  0.53302467  0.01514955     0.88100
C209        C  0.31492977  0.58230559  0.53017493     0.88100
C210        C  0.41163840  0.58216734  0.50023863     0.88300
O211        O  0.33115415  0.58051555  0.30747287    -0.74000
O212        O  0.40404627  0.57918383  0.29390974    -0.74000
O213        O  0.36846753  0.61655341  0.30101749    -0.74100
O214        O  0.36715559  0.54286528  0.30010631    -0.74100
O215        O  0.36419085  0.54295719  0.21591089    -0.74100
O216        O  0.36367850  0.61650462  0.21699518    -0.74000
O217        O  0.40038143  0.57993697  0.20987199    -0.74000
O218        O  0.32743516  0.57937760  0.22370251    -0.74100
Ni219      Ni  0.36779599  0.57973068  0.30360233     1.25400
Ni220      Ni  0.36375449  0.57970427  0.21365061     1.25400
C221        C  0.31706907  0.58023276  0.26782219     0.88200
C222        C  0.41430456  0.57965020  0.24977947     0.88100
C223        C  0.36635559  0.62861072  0.25898892     0.88100
C224        C  0.36589549  0.53070913  0.25779754     0.88300
O225        O  0.67170627  0.25342443  0.44931977    -0.74000
O226        O  0.66936501  0.32675961  0.44497919    -0.74000
O227        O  0.70745541  0.29130303  0.44632959    -0.74100
O228        O  0.63408374  0.28928215  0.44844090    -0.74100
O229        O  0.63512038  0.28988708  0.03253194    -0.74100
O230        O  0.70801050  0.29234120  0.03046181    -0.74000
O231        O  0.67012427  0.32791115  0.02947148    -0.74000
O232        O  0.67275081  0.25464213  0.03371118    -0.74100
Ni233      Ni  0.67071920  0.29008646  0.44420417     1.25400
Ni234      Ni  0.67155889  0.29125592  0.03447772     1.25400
C235        C  0.67234256  0.24199925  0.99211998     0.88200
C236        C  0.66885810  0.33928312  0.98657317     0.88100
C237        C  0.71988693  0.29226701  0.48818763     0.88100
C238        C  0.62236270  0.28969480  0.49119456     0.88300
O239        O  0.70821071  0.29348415  0.28522821    -0.74000
O240        O  0.63509607  0.29086446  0.28820241    -0.74000
O241        O  0.67307249  0.25571391  0.28799008    -0.74100
O242        O  0.67017435  0.32893188  0.28528862    -0.74100
O243        O  0.66931392  0.32786654  0.20066515    -0.74100
O244        O  0.67175363  0.25474464  0.20387207    -0.74000
O245        O  0.63429771  0.29029319  0.20385331    -0.74000
O246        O  0.70743050  0.29268857  0.20106383    -0.74100
Ni247      Ni  0.67169297  0.29230398  0.28968514     1.25400
Ni248      Ni  0.67076476  0.29133058  0.19938381     1.25400
C249        C  0.72005854  0.29346340  0.24265198     0.88200
C250        C  0.62255836  0.29029580  0.24653714     0.88100
C251        C  0.67249344  0.24299297  0.24641032     0.88100
C252        C  0.66883434  0.34033757  0.24244795     0.88300
O253        O  0.65336714  0.61729041  0.03497142    -0.74000
O254        O  0.65191604  0.54432013  0.02726068    -0.74000
O255        O  0.68910310  0.57984991  0.03584554    -0.74100
O256        O  0.61583605  0.58177928  0.02555752    -0.74100
O257        O  0.61904511  0.58345144  0.44123051    -0.74100
O258        O  0.69215611  0.58252459  0.45197580    -0.74000
O259        O  0.65503119  0.54613253  0.44337180    -0.74000
O260        O  0.65578205  0.61951480  0.45084659    -0.74100
Ni261      Ni  0.65240428  0.58072933  0.03385469     1.25400
Ni262      Ni  0.65564704  0.58295152  0.44386611     1.25400
C263        C  0.65473822  0.63061358  0.49424436     0.88200
C264        C  0.65334003  0.53301843  0.48430686     0.88100
C265        C  0.70285496  0.58104621  0.99557596     0.88100
C266        C  0.60543216  0.58294240  0.98162985     0.88300
O267        O  0.69436237  0.58343346  0.20187654    -0.74000
O268        O  0.62116733  0.58286041  0.19262785    -0.74000
O269        O  0.65720320  0.61981314  0.20099908    -0.74100
O270        O  0.65780500  0.54654784  0.19378153    -0.74100
O271        O  0.65514940  0.54478589  0.27784219    -0.74100
O272        O  0.65548753  0.61775032  0.28502041    -0.74000
O273        O  0.61866184  0.58153249  0.27708449    -0.74000
O274        O  0.69171444  0.58098512  0.28614563    -0.74100
Ni275      Ni  0.65779569  0.58324564  0.19428369     1.25400
Ni276      Ni  0.65513718  0.58119253  0.28446544     1.25400
C277        C  0.70503351  0.58224742  0.24548050     0.88200
C278        C  0.60794142  0.58213726  0.23349849     0.88100
C279        C  0.65619310  0.63100645  0.24428585     0.88100
C280        C  0.65625582  0.53348680  0.23473281     0.88300
O281        O  0.05332510  0.31298923  0.97743929    -0.74000
O282        O  0.12635165  0.30964413  0.47777843    -0.74000
O283        O  0.09001497  0.31130166  0.40434840    -0.74100
O284        O  0.08975964  0.31132524  0.05030596    -0.74100
O285        O  0.08848515  0.26870023  0.04988603    -0.74100
O286        O  0.08773550  0.26872014  0.40400813    -0.74000
O287        O  0.12467475  0.26724130  0.97564295    -0.74000
O288        O  0.05152481  0.27035921  0.47801271    -0.74100
Ni289      Ni  0.08989962  0.31282752  0.47740775     1.25400
Ni290      Ni  0.08801595  0.26726518  0.47687569     1.25400
C291        C  0.04037231  0.29217795  0.47816310     0.88200
C292        C  0.13775615  0.28796349  0.47667699     0.88100
C293        C  0.08891249  0.29000702  0.38014793     0.88100
C294        C  0.08912524  0.28999305  0.07412224     0.88300
O295        O  0.05341668  0.31303022  0.22724706    -0.74000
O296        O  0.12659065  0.30924963  0.22795511    -0.74000
O297        O  0.09029127  0.31122070  0.15437808    -0.74100
O298        O  0.08979253  0.31128081  0.30025626    -0.74100
O299        O  0.08826575  0.26866470  0.29992145    -0.74100
O300        O  0.08778387  0.26865209  0.15396804    -0.74000
O301        O  0.12452959  0.26690718  0.22586679    -0.74000
O302        O  0.05149156  0.27040713  0.22776867    -0.74100
Ni303      Ni  0.09010088  0.31270562  0.22738799     1.25400
Ni304      Ni  0.08793977  0.26715717  0.22687689     1.25400
C305        C  0.04042931  0.29225909  0.22788143     0.88200
C306        C  0.13782665  0.28745933  0.22701257     0.88100
C307        C  0.08907690  0.28995358  0.13014544     0.88100
C308        C  0.08899850  0.28997693  0.32411809     0.88300
O309        O  0.99973591  0.27229133  0.97996810    -0.74000
O310        O  0.92666508  0.27440590  0.47984867    -0.74000
O311        O  0.96333900  0.27338367  0.40711720    -0.74100
O312        O  0.96303240  0.27341231  0.05308604    -0.74100
O313        O  0.96465993  0.31602523  0.05342362    -0.74100
O314        O  0.96389869  0.31602429  0.40756872    -0.74000
O315        O  0.92761232  0.31678942  0.98208305    -0.74000
O316        O  0.00093419  0.31493650  0.47934696    -0.74100
Ni317      Ni  0.96318569  0.27187298  0.98002314     1.25400
Ni318      Ni  0.96434475  0.31746551  0.98055377     1.25400
C319        C  0.01238605  0.29323617  0.97921862     0.88200
C320        C  0.91490526  0.29580906  0.98170098     0.88100
C321        C  0.96370714  0.29472571  0.38331681     0.88100
C322        C  0.96375208  0.29472571  0.07728662     0.88300
O323        O  0.99969777  0.27240360  0.22965616    -0.74000
O324        O  0.92663990  0.27458954  0.23025247    -0.74000
O325        O  0.96317162  0.27343920  0.15717584    -0.74100
O326        O  0.96314320  0.27347440  0.30305885    -0.74100
O327        O  0.96482837  0.31608647  0.30347430    -0.74100
O328        O  0.96384046  0.31607821  0.15752933    -0.74000
O329        O  0.92767497  0.31701155  0.23241624    -0.74000
O330        O  0.00100332  0.31504991  0.22910291    -0.74100
Ni331      Ni  0.96312201  0.27198908  0.23004765     1.25400
Ni332      Ni  0.96438179  0.31758251  0.23057423     1.25400
C333        C  0.01238123  0.29334137  0.22890591     0.88200
C334        C  0.91490724  0.29607641  0.23222376     0.88100
C335        C  0.96355937  0.29475660  0.13332198     0.88100
C336        C  0.96391464  0.29476441  0.32729323     0.88300
C337        C  0.78972050  0.30647157  0.28038640    -0.05000
C338        C  0.80311916  0.29648144  0.23849807     0.09100
C339        C  0.78950904  0.28549457  0.19808367    -0.02400
C340        C  0.76260908  0.28422929  0.19944744    -0.00700
C341        C  0.74877880  0.29435899  0.24148844    -0.04300
C342        C  0.76279324  0.30537719  0.28229492     0.02700
C343        C  0.83176746  0.29670080  0.23760857     0.09600
C344        C  0.80347049  0.27525424  0.15510329     0.35500
C345        C  0.74988506  0.31614589  0.32621437     0.38900
C346        C  0.84542628  0.27466545  0.25166891    -0.04700
C347        C  0.87234984  0.27487860  0.25244398     0.02500
C348        C  0.88616281  0.29654274  0.23462591    -0.04300
C349        C  0.87211390  0.31845208  0.21905272    -0.00500
C350        C  0.84517130  0.31872567  0.22226754    -0.03100
C351        C  0.83164754  0.25148204  0.26454143     0.36200
C352        C  0.88497546  0.34062350  0.19809378     0.39800
C353        C  0.88546208  0.25291745  0.27355578     0.38900
C354        C  0.83109188  0.34170277  0.20950923     0.35900
C355        C  0.80389657  0.31811558  0.32143038     0.36600
C356        C  0.74961691  0.27158011  0.15788901     0.39800
N357        N  0.89577958  0.23541441  0.29077751    -0.38300
N358        N  0.82065213  0.23290439  0.27407232    -0.39900
N359        N  0.89508120  0.35833831  0.18112018    -0.37600
N360        N  0.81982698  0.36007470  0.19977361    -0.40000
N361        N  0.81492602  0.26713009  0.12117743    -0.39800
N362        N  0.73963362  0.26151871  0.12423744    -0.37400
N363        N  0.73977604  0.32482396  0.36136639    -0.38400
N364        N  0.81553904  0.32749627  0.35363465    -0.40100
C365        C  0.64468262  0.46385468  0.27232468    -0.05000
C366        C  0.65803944  0.45061162  0.23393958     0.09100
C367        C  0.66926621  0.46434546  0.19371235    -0.02400
C368        C  0.66842063  0.49131151  0.19316951    -0.00700
C369        C  0.65580268  0.50486803  0.23272828    -0.04300
C370        C  0.64314019  0.49075913  0.27134289     0.02700
C371        C  0.66074412  0.42214320  0.23634939     0.09600
C372        C  0.68201405  0.45055488  0.15306584     0.35500
C373        C  0.62778361  0.50363831  0.30960568     0.38900
C374        C  0.63959997  0.40617858  0.22644216    -0.04700
C375        C  0.64223947  0.37939069  0.22893729     0.02500
C376        C  0.66607418  0.36842105  0.24095157    -0.04300
C377        C  0.68727146  0.38432130  0.25025444    -0.00500
C378        C  0.68460223  0.41111777  0.24824056    -0.03100
C379        C  0.61514426  0.41732691  0.21337663     0.36200
C380        C  0.71207624  0.37314997  0.25998639     0.39800
C381        C  0.62030197  0.36317542  0.21947422     0.38900
C382        C  0.70647309  0.42739028  0.25808949     0.35900
C383        C  0.63262950  0.44972519  0.31321548     0.36600
C384        C  0.68133169  0.50478812  0.15245317     0.39800
N385        N  0.60257363  0.35056826  0.21187291    -0.38300
N386        N  0.59560738  0.42620318  0.20312779    -0.39900
N387        N  0.73206008  0.36453288  0.26716376    -0.37600
N388        N  0.72389191  0.44041269  0.26587268    -0.40000
N389        N  0.69218362  0.43937257  0.12093765    -0.39800
N390        N  0.69162247  0.51535856  0.11974377    -0.37400
N391        N  0.61553095  0.51381971  0.34017159    -0.38400
N392        N  0.62295848  0.43843167  0.34569341    -0.40100
C393        C  0.78955706  0.28158376  0.44857187    -0.05000
C394        C  0.80285442  0.29555001  0.48597042     0.09100
C395        C  0.78902983  0.30806925  0.02431079    -0.02400
C396        C  0.76211559  0.30672764  0.02565094    -0.00700
C397        C  0.74851766  0.29321309  0.48768852    -0.04300
C398        C  0.76263201  0.28030568  0.44936841     0.02700
C399        C  0.83163466  0.29590696  0.98584422     0.09600
C400        C  0.80257792  0.32254591  0.06271136     0.35500
C401        C  0.74972908  0.26455955  0.41195000     0.38900
C402        C  0.84501351  0.31830361  0.47198766    -0.04700
C403        C  0.87197311  0.31817869  0.46914834     0.02500
C404        C  0.88613153  0.29611352  0.98379385    -0.04300
C405        C  0.87237222  0.27425303  0.00083037    -0.00500
C406        C  0.84543796  0.27392575  0.00001193    -0.03100
C407        C  0.83103465  0.34155178  0.46069979     0.36200
C408        C  0.88555887  0.25214136  0.02117084     0.39800
C409        C  0.88480737  0.34069480  0.44958670     0.38900
C410        C  0.83182403  0.25079592  0.01402967     0.35900
C411        C  0.80378132  0.26808259  0.40964032     0.36600
C412        C  0.74863279  0.31970900  0.06643131     0.39800
N413        N  0.89487999  0.35869970  0.43376593    -0.38300
N414        N  0.81990372  0.36016475  0.45219367    -0.39900
N415        N  0.89592969  0.23449816  0.03769064    -0.37600
N416        N  0.82097783  0.23230697  0.02484450    -0.40000
N417        N  0.81351123  0.33426647  0.09289315    -0.39800
N418        N  0.73802191  0.33002914  0.09917468    -0.37400
N419        N  0.73952836  0.25193402  0.38212405    -0.38400
N420        N  0.81538633  0.25714115  0.37918471    -0.40100
C421        C  0.64412835  0.46285654  0.02331643    -0.05000
C422        C  0.65677692  0.44980899  0.98376298     0.09100
C423        C  0.66690875  0.46385946  0.44283914    -0.02400
C424        C  0.66526244  0.49079763  0.44201226    -0.00700
C425        C  0.65336207  0.50425784  0.48260417    -0.04300
C426        C  0.64218825  0.48978649  0.02267874     0.02700
C427        C  0.65975072  0.42126783  0.98527672     0.09600
C428        C  0.67956608  0.45034158  0.40176091     0.35500
C429        C  0.62805686  0.50234326  0.06310831     0.38900
C430        C  0.63849159  0.40523007  0.47675960    -0.04700
C431        C  0.64148050  0.37841004  0.47743385     0.02500
C432        C  0.66588618  0.36744105  0.98526975    -0.04300
C433        C  0.68716950  0.38352806  0.99241752    -0.00500
C434        C  0.68403207  0.41031789  0.99362189    -0.03100
C435        C  0.61359713  0.41627480  0.46697287     0.36200
C436        C  0.71251488  0.37265114  0.99603563     0.39800
C437        C  0.61942532  0.36210685  0.46998000     0.38900
C438        C  0.70584104  0.42669018  0.00332019     0.35900
C439        C  0.63324078  0.44846689  0.06505699     0.36600
C440        C  0.67647383  0.50427198  0.39946921     0.39800
N441        N  0.60155364  0.34948831  0.46396151    -0.38300
N442        N  0.59371740  0.42507700  0.45938090    -0.39900
N443        N  0.73296336  0.36439818  0.99781732    -0.37600
N444        N  0.72318901  0.43981377  0.01105136    -0.40000
N445        N  0.68979613  0.43932934  0.36950791    -0.39800
N446        N  0.68530396  0.51461655  0.36489205    -0.37400
N447        N  0.61679008  0.51230502  0.09538481    -0.38400
N448        N  0.62445178  0.43688565  0.09808960    -0.40100
C449        C  0.48154348  0.59548020  0.20242664    -0.05000
C450        C  0.49688851  0.58098333  0.23574383     0.09100
C451        C  0.48498653  0.56619151  0.27393530    -0.02400
C452        C  0.45812669  0.56534688  0.27794816    -0.00700
C453        C  0.44274340  0.58007696  0.24498421    -0.04300
C454        C  0.45472864  0.59557992  0.20793853     0.02700
C455        C  0.52556673  0.58166948  0.23169893     0.09600
C456        C  0.50045096  0.55215366  0.30998052     0.35500
C457        C  0.43956248  0.61253114  0.17667770     0.38900
C458        C  0.53910530  0.60449321  0.24231316    -0.04700
C459        C  0.56600893  0.60482758  0.24038679     0.02500
C460        C  0.57971179  0.58214462  0.23057664    -0.04300
C461        C  0.56636051  0.55939805  0.21941297    -0.00500
C462        C  0.53940457  0.55927076  0.21889698    -0.03100
C463        C  0.52545979  0.62765335  0.25603668     0.36200
C464        C  0.58035226  0.53594943  0.20966243     0.39800
C465        C  0.57958078  0.62874757  0.24716183     0.38900
C466        C  0.52589907  0.53601354  0.20537298     0.35900
C467        C  0.49330823  0.61048887  0.16246917     0.36600
C468        C  0.44645240  0.54883907  0.31562352     0.39800
N469        N  0.59013007  0.64804858  0.25164562    -0.38300
N470        N  0.51464015  0.64620665  0.26673092    -0.39900
N471        N  0.59138757  0.51713548  0.20220929    -0.37600
N472        N  0.51509787  0.51748292  0.19458065    -0.40000
N473        N  0.51282104  0.54096711  0.33863476    -0.39800
N474        N  0.43717762  0.53568111  0.34570807    -0.37400
N475        N  0.42728847  0.62609385  0.15221039    -0.38400
N476        N  0.50263818  0.62258570  0.13073777    -0.40100
C477        C  0.53696864  0.60756513  0.97807234    -0.05000
C478        C  0.52302079  0.58448580  0.97461220     0.09100
C479        C  0.53641993  0.56110142  0.47015188    -0.02400
C480        C  0.56336466  0.56067451  0.47166517    -0.00700
C481        C  0.57717273  0.58359279  0.97735544    -0.04300
C482        C  0.56394680  0.60712120  0.97886083     0.02700
C483        C  0.49442453  0.58447009  0.98068310     0.09600
C484        C  0.52231834  0.53736413  0.46512936     0.35500
C485        C  0.57808048  0.63093640  0.98063615     0.38900
C486        C  0.47826768  0.59295711  0.44161364    -0.04700
C487        C  0.45141289  0.59249660  0.44790299     0.02500
C488        C  0.44027197  0.58312776  0.49342824    -0.04300
C489        C  0.45687088  0.57542573  0.03320649    -0.00500
C490        C  0.48359531  0.57594425  0.02653868    -0.03100
C491        C  0.48932930  0.60255414  0.39502331     0.36200
C492        C  0.44696424  0.56631417  0.08125608     0.39800
C493        C  0.43550033  0.60316087  0.40840626     0.38900
C494        C  0.50024596  0.56754236  0.06710245     0.35900
C495        C  0.52353635  0.63174495  0.98198117     0.36600
C496        C  0.57688017  0.53654723  0.46754125     0.39800
N497        N  0.42275074  0.61193813  0.37724401    -0.38300
N498        N  0.49820985  0.61049175  0.35809692    -0.39900
N499        N  0.43927699  0.55865868  0.11946748    -0.37600
N500        N  0.51380075  0.56079307  0.09889644    -0.40000
N501        N  0.51096746  0.51847266  0.46135459    -0.39800
N502        N  0.58761621  0.51728153  0.46400527    -0.37400
N503        N  0.58912450  0.65009237  0.98134956    -0.38400
N504        N  0.51279125  0.65103674  0.98481191    -0.40100
C505        C  0.26415050  0.27131007  0.20309767    -0.05000
C506        C  0.24936939  0.28390412  0.24029378     0.09100
C507        C  0.26160572  0.29627591  0.28114717    -0.02400
C508        C  0.28847463  0.29657940  0.28434972    -0.00700
C509        C  0.30342449  0.28432136  0.24653806    -0.04300
C510        C  0.29097858  0.27106707  0.20665347     0.02700
C511        C  0.22083983  0.28454975  0.23595224     0.09600
C512        C  0.24637591  0.30929502  0.31920660     0.35500
C513        C  0.30563235  0.25632918  0.17005076     0.38900
C514        C  0.20628639  0.26247562  0.24600192    -0.04700
C515        C  0.17938761  0.26318922  0.24280432     0.02500
C516        C  0.16658631  0.28606536  0.22814178    -0.04300
C517        C  0.18167024  0.30784673  0.21575536    -0.00500
C518        C  0.20844601  0.30723949  0.22124640    -0.03100
C519        C  0.21910144  0.23893660  0.26017485     0.36200
C520        C  0.17012272  0.33082883  0.19532033     0.39800
C521        C  0.16530131  0.24014782  0.25534989     0.38900
C522        C  0.22340080  0.33014872  0.21193712     0.35900
C523        C  0.25169516  0.25891287  0.16057048     0.36600
C524        C  0.30052526  0.31049254  0.32554316     0.39800
N525        N  0.15428604  0.22161806  0.26522691    -0.38300
N526        N  0.22932759  0.22013152  0.27109226    -0.39900
N527        N  0.16111859  0.34917727  0.17866988    -0.37600
N528        N  0.23540306  0.34838587  0.20488778    -0.40000
N529        N  0.23393791  0.31979476  0.34896865    -0.39800
N530        N  0.31006031  0.32164121  0.35839087    -0.37400
N531        N  0.31737848  0.24447809  0.14112380    -0.38400
N532        N  0.24170801  0.24903723  0.12671124    -0.40100
C533        C  0.49762006  0.31073851  0.23163723    -0.05000
C534        C  0.51122669  0.28934342  0.24976703     0.09100
C535        C  0.49767100  0.26758645  0.26653731    -0.02400
C536        C  0.47078445  0.26803284  0.26864564    -0.00700
C537        C  0.45725117  0.28883165  0.24766059    -0.04300
C538        C  0.47088645  0.30958017  0.22669499     0.02700
C539        C  0.53981822  0.28940691  0.24943906     0.09600
C540        C  0.51134610  0.24459222  0.28073939     0.35500
C541        C  0.45756659  0.32962515  0.19958428     0.38900
C542        C  0.55346280  0.30317261  0.28654317    -0.04700
C543        C  0.58038326  0.30367091  0.28543316     0.02500
C544        C  0.59402216  0.28986622  0.24765532    -0.04300
C545        C  0.58014354  0.27603735  0.21046554    -0.00500
C546        C  0.55322964  0.27597073  0.21135603    -0.03100
C547        C  0.53968424  0.31707743  0.32564829     0.36200
C548        C  0.59333559  0.26137817  0.17158021     0.39800
C549        C  0.59385527  0.31945077  0.32194258     0.38900
C550        C  0.53915742  0.26196355  0.17303727     0.35900
C551        C  0.51098978  0.33421668  0.21947835     0.36600
C552        C  0.45711051  0.24673286  0.29108958     0.39800
N553        N  0.60464561  0.33208298  0.35089682    -0.38300
N554        N  0.52860184  0.32820532  0.35665263    -0.39900
N555        N  0.60376291  0.24975195  0.14036730    -0.37600
N556        N  0.52771826  0.25070571  0.14291968    -0.40000
N557        N  0.52224290  0.22615839  0.29159741    -0.39800
N558        N  0.44625856  0.22978398  0.30927533    -0.37400
N559        N  0.44703710  0.34543318  0.17723412    -0.38400
N560        N  0.52157507  0.35313697  0.21076006    -0.40100
C561        C  0.35477983  0.46078358  0.29524741    -0.05000
C562        C  0.36961524  0.44752779  0.25892015     0.09100
C563        C  0.38270172  0.46162549  0.22127880    -0.02400
C564        C  0.38147599  0.48864647  0.22071703    -0.00700
C565        C  0.36670975  0.50201204  0.25729736    -0.04300
C566        C  0.35299299  0.48773618  0.29385047     0.02700
C567        C  0.37160076  0.41876454  0.26029402     0.09600
C568        C  0.39768903  0.44822236  0.18324850     0.35500
C569        C  0.33586034  0.50058451  0.32858482     0.38900
C570        C  0.35013811  0.40329074  0.24933746    -0.04700
C571        C  0.35233071  0.37637434  0.24910738     0.02500
C572        C  0.37605253  0.36461030  0.25892592    -0.04300
C573        C  0.39735983  0.37994797  0.27092122    -0.00500
C574        C  0.39510314  0.40686677  0.27205996    -0.03100
C575        C  0.32574351  0.41499673  0.23780181     0.36200
C576        C  0.42163129  0.36812256  0.28274127     0.39800
C577        C  0.33002787  0.36078403  0.23878159     0.38900
C578        C  0.41704146  0.42235289  0.28554918     0.35900
C579        C  0.34130271  0.44664334  0.33427753     0.36600
C580        C  0.39617180  0.50257576  0.18326022     0.39800
N581        N  0.31213482  0.34861500  0.22996998    -0.38300
N582        N  0.30623245  0.42425661  0.22873167    -0.39900
N583        N  0.44097217  0.35905019  0.29371813    -0.37600
N584        N  0.43454800  0.43471385  0.29623084    -0.40000
N585        N  0.40975995  0.43728119  0.15347797    -0.39800
N586        N  0.40797175  0.51357562  0.15329501    -0.37400
N587        N  0.32183522  0.51065635  0.35595579    -0.38400
N588        N  0.33042352  0.43521629  0.36500437    -0.40100
C589        C  0.20656715  0.26345873  0.99370188    -0.05000
C590        C  0.22085608  0.28561070  0.98311418     0.09100
C591        C  0.20813505  0.30842376  0.46955381    -0.02400
C592        C  0.18132423  0.30886776  0.46497006    -0.00700
C593        C  0.16657300  0.28680714  0.97737691    -0.04300
C594        C  0.17964338  0.26403279  0.99169997     0.02700
C595        C  0.24934955  0.28525959  0.98743998     0.09600
C596        C  0.22281909  0.33160084  0.46116409     0.35500
C597        C  0.16580624  0.24106392  0.00572037     0.38900
C598        C  0.26432389  0.27381484  0.44932511    -0.04700
C599        C  0.29117347  0.27411250  0.45283822     0.02500
C600        C  0.30339385  0.28629966  0.99448693    -0.04300
C601        C  0.28802679  0.29704699  0.03356926    -0.00500
C602        C  0.26120976  0.29655585  0.02976671    -0.03100
C603        C  0.25205314  0.26147035  0.40656898     0.36200
C604        C  0.29942274  0.30902882  0.07769026     0.39800
C605        C  0.30608255  0.26085086  0.41446758     0.38900
C606        C  0.24557015  0.30795891  0.06922526     0.35900
C607        C  0.21971211  0.24008690  0.00773733     0.36600
C608        C  0.16945288  0.33201209  0.44600306     0.39800
N609        N  0.31799177  0.25025666  0.38393360    -0.38300
N610        N  0.24218093  0.25150178  0.37269017    -0.39900
N611        N  0.30812313  0.31841222  0.11345480    -0.37600
N612        N  0.23276359  0.31711898  0.10007959    -0.40000
N613        N  0.23456399  0.35008171  0.45494703    -0.39800
N614        N  0.16019985  0.35052528  0.43063915    -0.37400
N615        N  0.15498507  0.22261684  0.01693905    -0.38400
N616        N  0.23025721  0.22145961  0.01864503    -0.40100
C617        C  0.49744167  0.31446487  0.49230262    -0.05000
C618        C  0.51106276  0.29200352  0.00330274     0.09100
C619        C  0.49761687  0.26980432  0.01787531    -0.02400
C620        C  0.47078295  0.27029014  0.02176428    -0.00700
C621        C  0.45715236  0.29243200  0.00765003    -0.04300
C622        C  0.47054305  0.31461695  0.49407898     0.02700
C623        C  0.53959438  0.29157850  0.99978028     0.09600
C624        C  0.51139838  0.24628244  0.02756626     0.35500
C625        C  0.45680056  0.33816657  0.48461386     0.38900
C626        C  0.55441812  0.30203663  0.03895895    -0.04700
C627        C  0.58125723  0.30171341  0.03593015     0.02500
C628        C  0.59372022  0.29046038  0.49339792    -0.04300
C629        C  0.57853035  0.28051993  0.45329099    -0.00500
C630        C  0.55165252  0.28084614  0.45699407    -0.03100
C631        C  0.54182801  0.31346943  0.08229363     0.36200
C632        C  0.59006327  0.26957487  0.40818223     0.39800
C633        C  0.59566100  0.31421712  0.07587104     0.38900
C634        C  0.53610905  0.27013850  0.41696112     0.35900
C635        C  0.51123504  0.33756553  0.47903389     0.36600
C636        C  0.45725629  0.24808093  0.04077370     0.39800
N637        N  0.60716954  0.32425165  0.10757818    -0.38300
N638        N  0.53151247  0.32273893  0.11644524    -0.39900
N639        N  0.59876013  0.26078955  0.37171903    -0.37600
N640        N  0.52309217  0.26163738  0.38592630    -0.40000
N641        N  0.52241314  0.22745244  0.03466221    -0.39800
N642        N  0.44656334  0.23045885  0.05666720    -0.37400
N643        N  0.44611705  0.35720134  0.47781550    -0.38400
N644        N  0.52229475  0.35600142  0.46873149    -0.40100
C645        C  0.39055869  0.46553500  0.02558334    -0.05000
C646        C  0.36904953  0.45047597  0.01406220     0.09100
C647        C  0.34602476  0.46238026  0.50039018    -0.02400
C648        C  0.34443268  0.48932953  0.49896078    -0.00700
C649        C  0.36533279  0.50458955  0.01448469    -0.04300
C650        C  0.38875890  0.49244473  0.02541774     0.02700
C651        C  0.37129643  0.42182799  0.51251774     0.09600
C652        C  0.32405100  0.44689536  0.48718267     0.35500
C653        C  0.41183923  0.50737232  0.03023732     0.38900
C654        C  0.36354586  0.40717372  0.05434068    -0.04700
C655        C  0.36618965  0.38027311  0.05340768     0.02500
C656        C  0.37628993  0.36754526  0.50985049    -0.04300
C657        C  0.38390799  0.38283287  0.46779882    -0.00500
C658        C  0.38142775  0.40968696  0.46933305    -0.03100
C659        C  0.35242533  0.41995407  0.09793394     0.36200
C660        C  0.39498246  0.37124101  0.42301150     0.39800
C661        C  0.35796213  0.36585689  0.09716507     0.38900
C662        C  0.38937276  0.42511512  0.42645413     0.35900
C663        C  0.41484576  0.45326000  0.03569561     0.36600
C664        C  0.32160961  0.50116038  0.47903415     0.39800
N665        N  0.35152945  0.35424686  0.13214663    -0.38300
N666        N  0.34340463  0.43072140  0.13188028    -0.39900
N667        N  0.40386092  0.36145804  0.38781716    -0.37600
N668        N  0.39568526  0.43783694  0.39287318    -0.40000
N669        N  0.30652033  0.43448840  0.47688176    -0.39800
N670        N  0.30322506  0.51000520  0.46239820    -0.37400
N671        N  0.43089260  0.51842211  0.03240683    -0.38400
N672        N  0.43424174  0.44345716  0.04339698    -0.40100
C673        C  0.64557463  0.69917695  0.29436137    -0.05000
C674        C  0.65643523  0.71390836  0.25534478     0.09100
C675        C  0.66672099  0.70177405  0.21228502    -0.02400
C676        C  0.66614893  0.67492216  0.20782124    -0.00700
C677        C  0.65587597  0.65968459  0.24760941    -0.04300
C678        C  0.64543322  0.67225380  0.29099430     0.02700
C679        C  0.65687065  0.74243484  0.25914743     0.09600
C680        C  0.67818436  0.71719273  0.17265883     0.35500
C681        C  0.63355960  0.65791188  0.33183201     0.38900
C682        C  0.67959148  0.75515986  0.27211081    -0.04700
C683        C  0.68021798  0.78208214  0.27513197     0.02500
C684        C  0.65821900  0.79680480  0.26269412    -0.04300
C685        C  0.63543424  0.78361018  0.24905253    -0.00500
C686        C  0.63479034  0.75663871  0.24813628    -0.03100
C687        C  0.70255622  0.74039319  0.28158240     0.36200
C688        C  0.61255742  0.79734512  0.23442266     0.39800
C689        C  0.70364472  0.79416324  0.29206414     0.38900
C690        C  0.61138997  0.74332763  0.23501734     0.35900
C691        C  0.63423965  0.71191020  0.33785605     0.36600
C692        C  0.67659791  0.66350571  0.16211703     0.39800
N693        N  0.72241762  0.80359633  0.30560595    -0.38300
N694        N  0.72086652  0.72858439  0.28873485    -0.39900
N695        N  0.59420026  0.80809058  0.22269302    -0.37600
N696        N  0.59274227  0.73265017  0.22485981    -0.40000
N697        N  0.68746085  0.72979436  0.14173133    -0.39800
N698        N  0.68488622  0.65503057  0.12500254    -0.37400
N699        N  0.62395069  0.64666925  0.36446328    -0.38400
N700        N  0.62503346  0.72219270  0.37222056    -0.40100
C701        C  0.67898991  0.75476887  0.02003440    -0.05000
C702        C  0.65621227  0.74210997  0.00682846     0.09100
C703        C  0.63414317  0.75664490  0.49639032    -0.02400
C704        C  0.63484722  0.78364326  0.49850946    -0.00700
C705        C  0.65781951  0.79664304  0.01160412    -0.04300
C706        C  0.67981211  0.78171679  0.02306364     0.02700
C707        C  0.65556765  0.71350966  0.50338530     0.09600
C708        C  0.61060633  0.74364313  0.48296239     0.35500
C709        C  0.70349126  0.79362023  0.03908897     0.38900
C710        C  0.64245314  0.69902535  0.04041692    -0.04700
C711        C  0.64186045  0.67208079  0.03727670     0.02500
C712        C  0.65507603  0.65919776  0.49755740    -0.04300
C713        C  0.66874369  0.67382664  0.46125784    -0.00500
C714        C  0.66855770  0.70077225  0.46377314    -0.03100
C715        C  0.62958579  0.71201285  0.08192905     0.36200
C716        C  0.68405643  0.66137410  0.42241433     0.39800
C717        C  0.62711424  0.65797727  0.07463251     0.38900
C718        C  0.68206457  0.71555722  0.42577760     0.35900
C719        C  0.70179362  0.73990485  0.03041266     0.36600
C720        C  0.61171677  0.79755531  0.48626368     0.39800
N721        N  0.61537235  0.64686067  0.10458325    -0.38300
N722        N  0.61924765  0.72242816  0.11486305    -0.39900
N723        N  0.69635809  0.65152744  0.39148644    -0.37600
N724        N  0.69291117  0.72756686  0.39593671    -0.40000
N725        N  0.59181260  0.73329281  0.47254970    -0.39800
N726        N  0.59312548  0.80844076  0.47661598    -0.37400
N727        N  0.72248252  0.80288532  0.05183260    -0.38400
N728        N  0.71995717  0.72800188  0.03839491    -0.40100
C729        C  0.64837724  0.11845353  0.24423784    -0.05000
C730        C  0.67155178  0.13138931  0.25211631     0.09100
C731        C  0.69381978  0.11745795  0.26291174    -0.02400
C732        C  0.69297954  0.09055195  0.26654652    -0.00700
C733        C  0.66956506  0.07711929  0.25925880    -0.04300
C734        C  0.64720697  0.09159910  0.24798960     0.02700
C735        C  0.67223353  0.15995060  0.25070044     0.09600
C736        C  0.71770244  0.13100462  0.27054835     0.35500
C737        C  0.62270140  0.07938270  0.23953931     0.38900
C738        C  0.66238817  0.17410688  0.29174562    -0.04700
C739        C  0.66254049  0.20104108  0.29056386     0.02500
C740        C  0.67240951  0.21427470  0.24770571    -0.04300
C741        C  0.68186748  0.19969011  0.20605528    -0.00500
C742        C  0.68208362  0.17273035  0.20806226    -0.03100
C743        C  0.65165677  0.16071802  0.33497964     0.36200
C744        C  0.69141702  0.21202744  0.16069243     0.39800
C745        C  0.65153885  0.21475401  0.33314583     0.38900
C746        C  0.69253479  0.15794504  0.16623386     0.35900
C747        C  0.62556356  0.13298606  0.23219751     0.36600
C748        C  0.71648491  0.07720964  0.27847557     0.39800
N749        N  0.64277205  0.22546755  0.36741425    -0.38300
N750        N  0.64290341  0.14971870  0.36881506    -0.39900
N751        N  0.69872928  0.22165271  0.12399426    -0.37600
N752        N  0.70103905  0.14593633  0.13338024    -0.40000
N753        N  0.73671240  0.14185430  0.27649878    -0.39800
N754        N  0.73538008  0.06681024  0.28785397    -0.37400
N755        N  0.60305262  0.06988238  0.23270481    -0.38400
N756        N  0.60740376  0.14458766  0.22268301    -0.40100
C757        C  0.65832510  0.11885103  0.04417662    -0.05000
C758        C  0.67124884  0.13094885  0.00362531     0.09100
C759        C  0.68352651  0.11588324  0.46647610    -0.02400
C760        C  0.68306575  0.08895811  0.46989843    -0.00700
C761        C  0.66991734  0.07683061  0.01003892    -0.04300
C762        C  0.65753505  0.09191937  0.04716366     0.02700
C763        C  0.67168687  0.15962086  0.99990710     0.09600
C764        C  0.69625485  0.12804253  0.42400347     0.35500
C765        C  0.64440047  0.07967858  0.08904631     0.38900
C766        C  0.69473719  0.17337439  0.50728323    -0.04700
C767        C  0.69506230  0.20030108  0.50345626     0.02500
C768        C  0.67225070  0.21371516  0.99396018    -0.04300
C769        C  0.64917084  0.20017161  0.98797587    -0.00500
C770        C  0.64897503  0.17322629  0.98967823    -0.03100
C771        C  0.71805204  0.15977340  0.51929691     0.36200
C772        C  0.62535744  0.21392777  0.98218974     0.39800
C773        C  0.71884028  0.21418415  0.50946834     0.38900
C774        C  0.62531873  0.15949292  0.98091996     0.35900
C775        C  0.64568984  0.13416997  0.08271300     0.36600
C776        C  0.69540262  0.07362451  0.43097006     0.39800
N777        N  0.73780195  0.22523772  0.51446004    -0.38300
N778        N  0.73665083  0.14890176  0.52885939    -0.39900
N779        N  0.60610780  0.22453448  0.97822862    -0.37600
N780        N  0.60645896  0.14854357  0.97391036    -0.40000
N781        N  0.70651177  0.13787055  0.39039234    -0.39800
N782        N  0.70523620  0.06130119  0.40007328    -0.37400
N783        N  0.63392462  0.06970205  0.12221221    -0.38400
N784        N  0.63545494  0.14658207  0.11293755    -0.40100
C785        C  0.24626203  0.59112595  0.23658566    -0.05000
C786        C  0.23395876  0.58060361  0.27935504     0.09100
C787        C  0.24881458  0.57110997  0.31959078    -0.02400
C788        C  0.27575403  0.57200990  0.31707886    -0.00700
C789        C  0.28835698  0.58097029  0.27269045    -0.04300
C790        C  0.27314312  0.59086710  0.23274959     0.02700
C791        C  0.20528700  0.57997174  0.28220427     0.09600
C792        C  0.23631240  0.56035347  0.36387633     0.35500
C793        C  0.28503946  0.60228183  0.18865443     0.38900
C794        C  0.19201673  0.55683014  0.27496760    -0.04700
C795        C  0.16502511  0.55637689  0.27466808     0.02500
C796        C  0.15065759  0.57930793  0.28209197    -0.04300
C797        C  0.16445064  0.60248278  0.29065195    -0.00500
C798        C  0.19143242  0.60263796  0.29091429    -0.03100
C799        C  0.20631610  0.53332352  0.26735660     0.36200
C800        C  0.15137304  0.62654072  0.29965770     0.39800
C801        C  0.15254096  0.53201076  0.26571102     0.38900
C802        C  0.20515480  0.62630134  0.30043344     0.35900
C803        C  0.23116791  0.60284418  0.19690391     0.36600
C804        C  0.29010113  0.56412790  0.36113696     0.39800
N805        N  0.14284221  0.51245216  0.25847874    -0.38300
N806        N  0.21775944  0.51462154  0.26133451    -0.39900
N807        N  0.14119252  0.64586505  0.30688129    -0.37600
N808        N  0.21616348  0.64511704  0.30792054    -0.40000
N809        N  0.22644558  0.55149880  0.39900027    -0.39800
N810        N  0.30124271  0.55830386  0.39706926    -0.37400
N811        N  0.29506154  0.61167120  0.15434139    -0.38400
N812        N  0.21900337  0.61252945  0.16586200    -0.40100
C813        C  0.19076670  0.59143339  0.49601565    -0.05000
C814        C  0.20373648  0.58055672  0.03766754     0.09100
C815        C  0.18927131  0.56943476  0.07740663    -0.02400
C816        C  0.16233904  0.56917044  0.07535573    -0.00700
C817        C  0.14949066  0.57994113  0.03358803    -0.04300
C818        C  0.16381436  0.59122198  0.49415358     0.02700
C819        C  0.23254041  0.58113557  0.03989691     0.09600
C820        C  0.20204889  0.55815287  0.12053900     0.35500
C821        C  0.15072006  0.60225900  0.45106927     0.38900
C822        C  0.24573026  0.60472106  0.04356201    -0.04700
C823        C  0.27271329  0.60535251  0.04159988     0.02500
C824        C  0.28681602  0.58221296  0.53896888    -0.04300
C825        C  0.27371451  0.55885767  0.54407706    -0.00500
C826        C  0.24688860  0.55805241  0.54005527    -0.03100
C827        C  0.23155671  0.62832487  0.05037886     0.36200
C828        C  0.28743252  0.53637501  0.56063304     0.39800
C829        C  0.28590110  0.62946458  0.04809009     0.38900
C830        C  0.23421103  0.53352493  0.53521551     0.35900
C831        C  0.20510801  0.60292488  0.45483500     0.36600
C832        C  0.14773607  0.55859541  0.11719069     0.39800
N833        N  0.29592235  0.64878268  0.05595787    -0.38300
N834        N  0.22023850  0.64712859  0.05604060    -0.39900
N835        N  0.29802325  0.51874113  0.57660211    -0.37600
N836        N  0.22410750  0.51394121  0.53127455    -0.40000
N837        N  0.21239895  0.54872247  0.15433602    -0.39800
N838        N  0.13595266  0.55030211  0.15048228    -0.37400
N839        N  0.14012651  0.61105425  0.41687283    -0.38400
N840        N  0.21659872  0.61234968  0.42234033    -0.40100
C841        C  0.83077770  0.56835113  0.22740832    -0.05000
C842        C  0.81589634  0.58103320  0.26460874     0.09100
C843        C  0.82830617  0.59301931  0.30594671    -0.02400
C844        C  0.85520575  0.59238636  0.30983578    -0.00700
C845        C  0.86995724  0.57918215  0.27323431    -0.04300
C846        C  0.85757615  0.56699828  0.23221207     0.02700
C847        C  0.78720628  0.58152473  0.26017902     0.09600
C848        C  0.81337740  0.60601714  0.34456881     0.35500
C849        C  0.87249102  0.55365494  0.19397485     0.38900
C850        C  0.77296730  0.55860820  0.26449399    -0.04700
C851        C  0.74623855  0.55879558  0.25785972     0.02500
C852        C  0.73328699  0.58201445  0.24923663    -0.04300
C853        C  0.74730847  0.60500361  0.24603376    -0.00500
C854        C  0.77418128  0.60471756  0.25050011    -0.03100
C855        C  0.78579438  0.53477196  0.27617503     0.36200
C856        C  0.73405773  0.62908786  0.23929191     0.39800
C857        C  0.73203279  0.53498353  0.25938480     0.38900
C858        C  0.78843676  0.62832221  0.24474311     0.35900
C859        C  0.81848712  0.55701445  0.18357786     0.36600
C860        C  0.86772480  0.60491122  0.35213158     0.39800
N861        N  0.72076927  0.51595485  0.26043114    -0.38300
N862        N  0.79602558  0.51573907  0.28540197    -0.39900
N863        N  0.72368783  0.64845122  0.23437306    -0.37600
N864        N  0.79981043  0.64716278  0.24033144    -0.40000
N865        N  0.80134345  0.61652608  0.37501487    -0.39800
N866        N  0.87787771  0.61493873  0.38563111    -0.37400
N867        N  0.88443335  0.54294148  0.16365735    -0.38400
N868        N  0.80851388  0.54790401  0.14887649    -0.40100
C869        C  0.82739143  0.55693014  0.02380219    -0.05000
C870        C  0.81455627  0.57983204  0.01223812     0.09100
C871        C  0.82874387  0.60260938  0.50629608    -0.02400
C872        C  0.85557314  0.60253854  0.51190667    -0.00700
C873        C  0.86891453  0.57934266  0.02287806    -0.04300
C874        C  0.85424790  0.55655511  0.02917537     0.02700
C875        C  0.78593761  0.58019312  0.00765473     0.09600
C876        C  0.81553200  0.62623411  0.49424965     0.35500
C877        C  0.86626992  0.53245992  0.04212938     0.38900
C878        C  0.77088268  0.59054447  0.04701205    -0.04700
C879        C  0.74399233  0.59078418  0.04325041     0.02500
C880        C  0.73158921  0.58086518  0.99951052    -0.04300
C881        C  0.74705584  0.57088126  0.45965022    -0.00500
C882        C  0.77394655  0.57028702  0.46412742    -0.03100
C883        C  0.78322635  0.60108887  0.09161151     0.36200
C884        C  0.73559461  0.56067634  0.41396990     0.39800
C885        C  0.72944587  0.60199448  0.08443180     0.38900
C886        C  0.78939088  0.55903884  0.42411227     0.35900
C887        C  0.81272130  0.53362840  0.03071027     0.36600
C888        C  0.86894164  0.62666409  0.50598583     0.39800
N889        N  0.71820253  0.61091477  0.11784515    -0.38300
N890        N  0.79320484  0.60967842  0.12682940    -0.39900
N891        N  0.72670564  0.55271325  0.37708726    -0.37600
N892        N  0.80183442  0.54986243  0.39264392    -0.40000
N893        N  0.80500105  0.64507157  0.48477668    -0.39800
N894        N  0.87936228  0.64604156  0.50131088    -0.37400
N895        N  0.87559765  0.51310074  0.05243793    -0.38400
N896        N  0.80093185  0.51512119  0.03621267    -0.40100
C897        C  0.37158481  0.11452002  0.19691246    -0.05000
C898        C  0.38368092  0.12819038  0.23624815     0.09100
C899        C  0.39566872  0.11471103  0.27585415    -0.02400
C900        C  0.39525275  0.08772638  0.27654777    -0.00700
C901        C  0.38252248  0.07408895  0.23781479    -0.04300
C902        C  0.37085634  0.08758384  0.19775658     0.02700
C903        C  0.38315708  0.15685114  0.23646956     0.09600
C904        C  0.40821364  0.12873445  0.31606858     0.35500
C905        C  0.35860359  0.07375108  0.15671077     0.38900
C906        C  0.36065505  0.16991804  0.25072541    -0.04700
C907        C  0.36021118  0.19687780  0.25195556     0.02500
C908        C  0.38185023  0.21095436  0.23648643    -0.04300
C909        C  0.40379485  0.19790421  0.21913443    -0.00500
C910        C  0.40482370  0.17095154  0.22117649    -0.03100
C911        C  0.33787408  0.15557294  0.26370594     0.36200
C912        C  0.42523752  0.21215381  0.19884254     0.39800
C913        C  0.33714809  0.21013725  0.26749397     0.38900
C914        C  0.42830677  0.15772809  0.20844636     0.35900
C915        C  0.35979297  0.12833483  0.15567566     0.36600
C916        C  0.40723674  0.07405240  0.31794255     0.39800
N917        N  0.31864671  0.22057687  0.27970230    -0.38300
N918        N  0.31965480  0.14409097  0.27359052    -0.39900
N919        N  0.44224898  0.22343046  0.18197399    -0.37600
N920        N  0.44713929  0.14717251  0.19893423    -0.40000
N921        N  0.41830172  0.14016495  0.34778038    -0.39800
N922        N  0.41677383  0.06314350  0.35097845    -0.37400
N923        N  0.34890070  0.06273140  0.12388910    -0.38400
N924        N  0.35036129  0.13963723  0.12313339    -0.40100
C925        C  0.40412843  0.17266646  0.47213636    -0.05000
C926        C  0.38247616  0.15874652  0.98793849     0.09100
C927        C  0.36015162  0.17211816  0.00248901    -0.02400
C928        C  0.36005891  0.19911688  0.00416662    -0.00700
C929        C  0.38180786  0.21291980  0.48912873    -0.04300
C930        C  0.40338780  0.19966350  0.47060899     0.02700
C931        C  0.38283081  0.12995246  0.98781678     0.09600
C932        C  0.33714576  0.15811241  0.01528207     0.35500
C933        C  0.42469218  0.21374600  0.44929935     0.38900
C934        C  0.39590660  0.11639484  0.02600383    -0.04700
C935        C  0.39564063  0.08934386  0.02659786     0.02500
C936        C  0.38216256  0.07558453  0.98895341    -0.04300
C937        C  0.36959738  0.08909862  0.45001221    -0.00500
C938        C  0.36995789  0.11610309  0.44947145    -0.03100
C939        C  0.40958108  0.13043220  0.06474844     0.36200
C940        C  0.35689467  0.07528763  0.40951056     0.39800
C941        C  0.40863858  0.07575319  0.06684361     0.38900
C942        C  0.35710119  0.12988247  0.40942521     0.35900
C943        C  0.42739692  0.15932979  0.45838683     0.36600
C944        C  0.33699433  0.21265817  0.01875719     0.39800
N945        N  0.41899326  0.06498070  0.09907038    -0.38300
N946        N  0.42059845  0.14194142  0.09510752    -0.39900
N947        N  0.34688379  0.06426982  0.37705738    -0.37600
N948        N  0.34677950  0.14115919  0.37791449    -0.40000
N949        N  0.31869334  0.14699417  0.02510076    -0.39800
N950        N  0.31849698  0.22340413  0.02989229    -0.37400
N951        N  0.44155856  0.22492513  0.43161383    -0.38400
N952        N  0.44610949  0.14874135  0.44811023    -0.40100
C953        C  0.35684462  0.75538728  0.28415916    -0.05000
C954        C  0.36973431  0.74012810  0.24789425     0.09100
C955        C  0.38294544  0.75224834  0.20776729    -0.02400
C956        C  0.38335765  0.77922208  0.20409042    -0.00700
C957        C  0.37003248  0.79438816  0.23989961    -0.04300
C958        C  0.35656058  0.78229015  0.27967960     0.02700
C959        C  0.36895500  0.71132834  0.25157836     0.09600
C960        C  0.39618239  0.73687137  0.17026797     0.35500
C961        C  0.34298296  0.79754360  0.31709791     0.38900
C962        C  0.34565186  0.69807959  0.24498709    -0.04700
C963        C  0.34464978  0.67122300  0.25019381     0.02500
C964        C  0.36714613  0.65706316  0.25859120    -0.04300
C965        C  0.39046563  0.67018581  0.26522731    -0.00500
C966        C  0.39129614  0.69720062  0.26262467    -0.03100
C967        C  0.32259519  0.71207837  0.23265576     0.36200
C968        C  0.41371334  0.65594060  0.27452058     0.39800
C969        C  0.32015670  0.65840426  0.25011022     0.38900
C970        C  0.41517688  0.71046386  0.27157947     0.35900
C971        C  0.34411471  0.74335045  0.32665801     0.36600
C972        C  0.39701265  0.79132566  0.16265968     0.39800
N973        N  0.30033711  0.64871190  0.25150729    -0.38300
N974        N  0.30418276  0.72324950  0.22302321    -0.39900
N975        N  0.43243786  0.64486207  0.28194831    -0.37600
N976        N  0.43423517  0.72105158  0.27864997    -0.40000
N977        N  0.40694291  0.72433355  0.14103533    -0.39800
N978        N  0.40790211  0.80097031  0.12959500    -0.37400
N979        N  0.33211649  0.80968287  0.34690783    -0.38400
N980        N  0.33386366  0.73357771  0.36029234    -0.40100
C981        C  0.34565406  0.69982195  0.48592875    -0.05000
C982        C  0.36810170  0.71286079  0.00120966     0.09100
C983        C  0.38956725  0.69860131  0.01675054    -0.02400
C984        C  0.38800701  0.67171081  0.02069377    -0.00700
C985        C  0.36543052  0.65884752  0.00635462    -0.04300
C986        C  0.34501341  0.67288022  0.48533121     0.02700
C987        C  0.36930711  0.74144883  0.99840286     0.09600
C988        C  0.41346405  0.71155365  0.02707543     0.35500
C989        C  0.32400509  0.65982552  0.46064087     0.38900
C990        C  0.35800402  0.75653712  0.03681249    -0.04700
C991        C  0.35825883  0.78345846  0.03316257     0.02500
C992        C  0.37008133  0.79547640  0.99125589    -0.04300
C993        C  0.38147206  0.78028434  0.45301086    -0.00500
C994        C  0.38098680  0.75335955  0.45651893    -0.03100
C995        C  0.34620736  0.74426951  0.08020880     0.36200
C996        C  0.39328059  0.79239519  0.40941452     0.39800
C997        C  0.34698856  0.79879309  0.07334708     0.38900
C998        C  0.39255764  0.73785573  0.41702862     0.35900
C999        C  0.32326005  0.71422773  0.47110587     0.36600
C1000       C  0.41039922  0.65712387  0.03490202     0.39800
N1001       N  0.33804947  0.81099179  0.10549744    -0.38300
N1002       N  0.33678924  0.73440486  0.11473875    -0.39900
N1003       N  0.40267008  0.80203504  0.37458540    -0.37600
N1004       N  0.40178706  0.72527721  0.38583323    -0.40000
N1005       N  0.43261114  0.72187536  0.03471682    -0.39800
N1006       N  0.42845159  0.64553938  0.04523661    -0.37400
N1007       N  0.30745171  0.64950460  0.44004872    -0.38400
N1008       N  0.30525607  0.72571013  0.46000397    -0.40100
O1009       O  0.39564368  0.90823575  0.48713839    -0.74000
O1010       O  0.39276763  0.83500118  0.98691701    -0.74000
O1011       O  0.39414458  0.87148590  0.91397615    -0.74100
O1012       O  0.39409196  0.87152046  0.55992319    -0.74100
O1013       O  0.35158603  0.87357187  0.56031321    -0.74100
O1014       O  0.35161734  0.87291870  0.91439700    -0.74000
O1015       O  0.35010710  0.83661605  0.48833308    -0.74000
O1016       O  0.35317976  0.91011382  0.98702871    -0.74100
Ni1017     Ni  0.39569329  0.87156880  0.98692319     1.25400
Ni1018     Ni  0.35015604  0.87341623  0.98742357     1.25400
C1019       C  0.37496007  0.92129595  0.98739362     0.88200
C1020       C  0.37091733  0.82373505  0.48835139     0.88100
C1021       C  0.37285760  0.87200985  0.89015858     0.88100
C1022       C  0.37284022  0.87239727  0.58413147     0.88300
O1023       O  0.39556329  0.90742150  0.73766963    -0.74000
O1024       O  0.39268243  0.83409688  0.73628824    -0.74000
O1025       O  0.39409319  0.87104816  0.66398208    -0.74100
O1026       O  0.39406280  0.87060495  0.80990736    -0.74100
O1027       O  0.35155311  0.87251392  0.81027106    -0.74100
O1028       O  0.35156863  0.87257737  0.66433548    -0.74000
O1029       O  0.35016214  0.83574955  0.73736435    -0.74000
O1030       O  0.35303514  0.90921487  0.73769815    -0.74100
Ni1031     Ni  0.39559171  0.87071623  0.73690565     1.25400
Ni1032     Ni  0.35006036  0.87255284  0.73734171     1.25400
C1033       C  0.37481444  0.92037658  0.73811022     0.88200
C1034       C  0.37097187  0.82283964  0.73727379     0.88100
C1035       C  0.37283171  0.87199117  0.64014292     0.88100
C1036       C  0.37281941  0.87165674  0.83411601     0.88300
O1037       O  0.35555766  0.96250320  0.48914800    -0.74000
O1038       O  0.35920735  0.03596617  0.98979012    -0.74000
O1039       O  0.35740933  0.99926821  0.91668736    -0.74100
O1040       O  0.35743224  0.99907788  0.56264485    -0.74100
O1041       O  0.39992189  0.99679789  0.56241650    -0.74100
O1042       O  0.39992399  0.99750430  0.91651979    -0.74000
O1043       O  0.40174165  0.03394166  0.49046556    -0.74000
O1044       O  0.39808630  0.96054148  0.98851190    -0.74100
Ni1045     Ni  0.35590721  0.99927847  0.48964727     1.25400
Ni1046     Ni  0.40141692  0.99710225  0.48948069     1.23000
C1047       C  0.37622658  0.94940523  0.48835719     0.88200
C1048       C  0.38104751  0.04702098  0.49002393     0.88100
C1049       C  0.37866992  0.99821940  0.89257932     0.88100
C1050       C  0.37866907  0.99776138  0.58655047     0.88300
O1051       O  0.35547222  0.96161697  0.73971376    -0.74000
O1052       O  0.35934221  0.03487320  0.73911921    -0.74000
O1053       O  0.35738960  0.99815837  0.66668648    -0.74100
O1054       O  0.35742043  0.99863257  0.81260635    -0.74100
O1055       O  0.39990629  0.99622579  0.81244285    -0.74100
O1056       O  0.39990263  0.99624380  0.66648886    -0.74000
O1057       O  0.40187087  0.03272433  0.73981677    -0.74000
O1058       O  0.39798494  0.95948546  0.73910214    -0.74100
Ni1059     Ni  0.35589646  0.99837114  0.73961110     1.25400
Ni1060     Ni  0.40142122  0.99605341  0.73947896     1.25400
C1061       C  0.37612541  0.94849751  0.73905897     0.88200
C1062       C  0.38121846  0.04580461  0.73917665     0.88100
C1063       C  0.37865568  0.99735548  0.64257093     0.88100
C1064       C  0.37866622  0.99769031  0.83654696     0.88300
O1065       O  0.98343187  0.55695103  0.52875011    -0.74000
O1066       O  0.90996762  0.55762146  0.02652904    -0.74000
O1067       O  0.94712281  0.55721214  0.95491648    -0.74100
O1068       O  0.94627286  0.55718334  0.60084566    -0.74100
O1069       O  0.94693259  0.59981427  0.60122635    -0.74100
O1070       O  0.94706534  0.59985024  0.95531424    -0.74000
O1071       O  0.91040802  0.59998514  0.52813383    -0.74000
O1072       O  0.98359298  0.59960365  0.02852936    -0.74100
Ni1073     Ni  0.94667246  0.55572137  0.02782509     1.25400
Ni1074     Ni  0.94698689  0.60129076  0.02831912     1.25400
C1075       C  0.99557062  0.57823698  0.02902450     0.88200
C1076       C  0.89784836  0.57896873  0.52632986     0.88100
C1077       C  0.94702158  0.57854791  0.93108562     0.88100
C1078       C  0.94672873  0.57848686  0.62506908     0.88300
O1079       O  0.98366817  0.55708808  0.77867145    -0.74000
O1080       O  0.91026738  0.55744421  0.77686517    -0.74000
O1081       O  0.94726883  0.55716968  0.70498367    -0.74100
O1082       O  0.94658682  0.55725381  0.85088626    -0.74100
O1083       O  0.94699469  0.59990727  0.85120334    -0.74100
O1084       O  0.94722430  0.59982477  0.70525688    -0.74000
O1085       O  0.91050989  0.60010373  0.77800972    -0.74000
O1086       O  0.98377669  0.59974745  0.77855908    -0.74100
Ni1087     Ni  0.94694786  0.55572102  0.77790254     1.25400
Ni1088     Ni  0.94714282  0.60139564  0.77827303     1.25400
C1089       C  0.99578989  0.57839807  0.77902627     0.88200
C1090       C  0.89833419  0.57886049  0.77658764     0.88100
C1091       C  0.94709251  0.57849130  0.68109809     0.88100
C1092       C  0.94684691  0.57857335  0.87506368     0.88300
O1093       O  0.03562763  0.59973014  0.53060010    -0.74000
O1094       O  0.10883925  0.60072427  0.03063786    -0.74000
O1095       O  0.07229715  0.60019886  0.95774554    -0.74100
O1096       O  0.07224035  0.60011584  0.60370890    -0.74100
O1097       O  0.07239640  0.55745964  0.60350963    -0.74100
O1098       O  0.07305637  0.55754944  0.95762573    -0.74000
O1099       O  0.10937953  0.55800898  0.53153994    -0.74000
O1100       O  0.03597252  0.55708758  0.02991261    -0.74100
Ni1101     Ni  0.07224148  0.60167914  0.53069903     1.25400
Ni1102     Ni  0.07272768  0.55600117  0.53059477     1.25400
C1103       C  0.02374663  0.57830217  0.52991258     0.88200
C1104       C  0.12116822  0.57950094  0.53161052     0.88100
C1105       C  0.07266842  0.57885876  0.93366417     0.88100
C1106       C  0.07243022  0.57878193  0.62762819     0.88300
O1107       O  0.03589893  0.59984128  0.78067811    -0.74000
O1108       O  0.10920609  0.60014907  0.78040035    -0.74000
O1109       O  0.07252724  0.60008161  0.70775559    -0.74100
O1110       O  0.07257529  0.60011190  0.85363808    -0.74100
O1111       O  0.07252313  0.55747531  0.85356210    -0.74100
O1112       O  0.07309200  0.55744850  0.70760300    -0.74000
O1113       O  0.10948268  0.55782392  0.78137721    -0.74000
O1114       O  0.03611554  0.55718616  0.78002328    -0.74100
Ni1115     Ni  0.07254641  0.60154211  0.78065627     1.25400
Ni1116     Ni  0.07281768  0.55597423  0.78061299     1.25400
C1117       C  0.02393620  0.57845317  0.77998171     0.88200
C1118       C  0.12170860  0.57907419  0.78123613     0.88100
C1119       C  0.07270753  0.57876294  0.68364989     0.88100
C1120       C  0.07259375  0.57881494  0.87763365     0.88300
O1121       O  0.64353647  0.96421654  0.51361491    -0.74000
O1122       O  0.64686236  0.03742132  0.01367325    -0.74000
O1123       O  0.64526764  0.00073666  0.94070534    -0.74100
O1124       O  0.64512944  0.00085290  0.58663820    -0.74100
O1125       O  0.68764980  0.99913069  0.58636668    -0.74100
O1126       O  0.68777115  0.99861960  0.94043048    -0.74000
O1127       O  0.68939715  0.03555311  0.51269758    -0.74000
O1128       O  0.68607555  0.96225151  0.01375800    -0.74100
Ni1129     Ni  0.64368966  0.00085401  0.01368590     1.25400
Ni1130     Ni  0.68922712  0.99880211  0.01336731     1.25400
C1131       C  0.66427656  0.95116793  0.01371712     0.88200
C1132       C  0.66867940  0.04855454  0.51258121     0.88100
C1133       C  0.66652494  0.99968506  0.91654827     0.88100
C1134       C  0.66637645  0.99987354  0.61052012     0.88300
O1135       O  0.64351292  0.96385252  0.76347059    -0.74000
O1136       O  0.64693077  0.03689117  0.76415634    -0.74000
O1137       O  0.64513306  0.00055629  0.69079982    -0.74100
O1138       O  0.64522884  0.00033561  0.83672977    -0.74100
O1139       O  0.68774648  0.99900275  0.83624559    -0.74100
O1140       O  0.68761182  0.99825705  0.69033027    -0.74000
O1141       O  0.68913606  0.03515180  0.76207452    -0.74000
O1142       O  0.68605483  0.96201822  0.76386593    -0.74100
Ni1143     Ni  0.64369902  0.00046605  0.76382981     1.25400
Ni1144     Ni  0.68914771  0.99852644  0.76320830     1.25400
C1145       C  0.66426018  0.95093435  0.76365316     0.88200
C1146       C  0.66852102  0.04830760  0.76223232     0.88100
C1147       C  0.66636221  0.99954699  0.66653946     0.88100
C1148       C  0.66651058  0.99968480  0.86051898     0.88300
O1149       O  0.68380875  0.91022627  0.51385059    -0.74000
O1150       O  0.68057355  0.83694223  0.01184776    -0.74000
O1151       O  0.68232436  0.87383219  0.94015270    -0.74100
O1152       O  0.68223986  0.87327311  0.58601451    -0.74100
O1153       O  0.63976101  0.87553048  0.58647637    -0.74100
O1154       O  0.63980408  0.87513028  0.94051231    -0.74000
O1155       O  0.63833657  0.83874891  0.51391600    -0.74000
O1156       O  0.64128650  0.91196408  0.01337403    -0.74100
Ni1157     Ni  0.68372767  0.87354236  0.51299905     1.25400
Ni1158     Ni  0.63828040  0.87544651  0.51356630     1.25400
C1159       C  0.66305192  0.92316455  0.51368322     0.88200
C1160       C  0.65894275  0.82556923  0.51259756     0.88100
C1161       C  0.66106684  0.87446507  0.91630644     0.88100
C1162       C  0.66101717  0.87437184  0.61027725     0.88300
O1163       O  0.68384511  0.91008803  0.76374743    -0.74000
O1164       O  0.68082090  0.83702507  0.76199522    -0.74000
O1165       O  0.68234334  0.87379242  0.69010107    -0.74100
O1166       O  0.68232182  0.87330012  0.83605329    -0.74100
O1167       O  0.63983621  0.87551067  0.83647281    -0.74100
O1168       O  0.63981613  0.87490160  0.69058585    -0.74000
O1169       O  0.63856442  0.83860922  0.76434697    -0.74000
O1170       O  0.64129840  0.91180436  0.76319658    -0.74100
Ni1171     Ni  0.68383487  0.87349058  0.76300637     1.25400
Ni1172     Ni  0.63836659  0.87526529  0.76361582     1.25400
C1173       C  0.66306443  0.92294824  0.76354467     0.88200
C1174       C  0.65924321  0.82554564  0.76313163     0.88100
C1175       C  0.66105733  0.87434251  0.66631210     0.88100
C1176       C  0.66108331  0.87442232  0.86028723     0.88300
O1177       O  0.38033041  0.25171718  0.53724858    -0.74000
O1178       O  0.37847759  0.32515750  0.54777075    -0.74000
O1179       O  0.34303796  0.28725692  0.53985819    -0.74100
O1180       O  0.41598249  0.28921835  0.54626291    -0.74100
O1181       O  0.41787410  0.29350155  0.96220473    -0.74100
O1182       O  0.34489182  0.28952561  0.95580085    -0.74000
O1183       O  0.37902241  0.32778889  0.96393001    -0.74000
O1184       O  0.38339268  0.25489986  0.95314967    -0.74100
Ni1185     Ni  0.37942420  0.28825918  0.54581185     1.25400
Ni1186     Ni  0.38141512  0.29153416  0.95580937     1.25400
C1187       C  0.38208068  0.24134252  0.99341807     0.88200
C1188       C  0.37808480  0.33881205  0.00730099     0.88100
C1189       C  0.33181078  0.28776799  0.49681431     0.88100
C1190       C  0.42886697  0.29169749  0.50527728     0.88300
O1191       O  0.34417644  0.28796803  0.70564628    -0.74000
O1192       O  0.41710916  0.29063970  0.70576516    -0.74000
O1193       O  0.38201994  0.25274837  0.69998565    -0.74100
O1194       O  0.37911511  0.32588795  0.71146009    -0.74100
O1195       O  0.37941158  0.32288370  0.79583364    -0.74100
O1196       O  0.38112405  0.24966520  0.78440094    -0.74000
O1197       O  0.41695168  0.28690599  0.79005871    -0.74000
O1198       O  0.34381686  0.28512994  0.78988165    -0.74100
Ni1199     Ni  0.38063535  0.28945358  0.70273683     1.25400
Ni1200     Ni  0.38037068  0.28608343  0.79308070     1.25400
C1201       C  0.33190637  0.28590068  0.74754156     0.88200
C1202       C  0.42902791  0.28885342  0.74790517     0.88100
C1203       C  0.38176583  0.23922409  0.74041285     0.88100
C1204       C  0.37854107  0.33638491  0.75539147     0.88300
O1205       O  0.36045909  0.61766171  0.96941824    -0.74000
O1206       O  0.35950317  0.54469250  0.97347259    -0.74000
O1207       O  0.32356674  0.58201486  0.98456116    -0.74100
O1208       O  0.39654120  0.58073589  0.96185922    -0.74100
O1209       O  0.40233412  0.58301708  0.54508858    -0.74100
O1210       O  0.33012545  0.58234122  0.56802656    -0.74000
O1211       O  0.36695507  0.54544703  0.55669690    -0.74000
O1212       O  0.36621756  0.61935168  0.55314101    -0.74100
Ni1213     Ni  0.35972617  0.58120210  0.96941450     1.25400
Ni1214     Ni  0.36654301  0.58252657  0.55875639     1.25400
C1215       C  0.36380752  0.63048153  0.51002505     0.88200
C1216       C  0.36367376  0.53292823  0.51513801     0.88100
C1217       C  0.31489180  0.58244944  0.03019357     0.88100
C1218       C  0.41160161  0.58222094  0.00023238     0.88300
O1219       O  0.33117071  0.58056064  0.80781809    -0.74000
O1220       O  0.40407823  0.57923063  0.79432774    -0.74000
O1221       O  0.36849234  0.61660354  0.80131908    -0.74100
O1222       O  0.36719018  0.54290897  0.80058054    -0.74100
O1223       O  0.36423009  0.54295996  0.71638628    -0.74100
O1224       O  0.36372926  0.61650135  0.71729069    -0.74000
O1225       O  0.40041993  0.57992878  0.71028484    -0.74000
O1226       O  0.32748120  0.57938328  0.72404387    -0.74100
Ni1227     Ni  0.36782126  0.57977920  0.80399178     1.25400
Ni1228     Ni  0.36379855  0.57970166  0.71403632     1.25400
C1229       C  0.31709909  0.58025630  0.76814423     0.88200
C1230       C  0.41433867  0.57967310  0.75019599     0.88100
C1231       C  0.36639756  0.62863408  0.75925528     0.88100
C1232       C  0.36594116  0.53073143  0.75829361     0.88300
O1233       O  0.67171175  0.25335894  0.94915876    -0.74000
O1234       O  0.66944725  0.32670006  0.94487066    -0.74000
O1235       O  0.70750569  0.29120114  0.94616777    -0.74100
O1236       O  0.63412855  0.28926149  0.94833532    -0.74100
O1237       O  0.63505708  0.28992407  0.53263691    -0.74100
O1238       O  0.70795043  0.29245935  0.53062397    -0.74000
O1239       O  0.67002545  0.32798656  0.52958022    -0.74000
O1240       O  0.67272915  0.25472165  0.53387277    -0.74100
Ni1241     Ni  0.67076486  0.29002426  0.94406834     1.25400
Ni1242     Ni  0.67149659  0.29133465  0.53461368     1.25400
C1243       C  0.67234184  0.24207236  0.49228801     0.88200
C1244       C  0.66876315  0.33934939  0.48667213     0.88100
C1245       C  0.71994267  0.29214966  0.98802181     0.88100
C1246       C  0.62241798  0.28968584  0.99110063     0.88300
O1247       O  0.70825676  0.29344882  0.78518775    -0.74000
O1248       O  0.63514435  0.29080738  0.78816708    -0.74000
O1249       O  0.67312956  0.25566719  0.78792414    -0.74100
O1250       O  0.67021137  0.32888565  0.78528256    -0.74100
O1251       O  0.66934446  0.32783773  0.70065892    -0.74100
O1252       O  0.67180830  0.25471327  0.70380452    -0.74000
O1253       O  0.63433950  0.29025035  0.70381729    -0.74000
O1254       O  0.70747258  0.29267221  0.70102360    -0.74100
Ni1255     Ni  0.67174008  0.29225678  0.78964785     1.25400
Ni1256     Ni  0.67080713  0.29130119  0.69934598     1.25400
C1257       C  0.72010259  0.29344315  0.74260962     0.88200
C1258       C  0.62260370  0.29024465  0.74650485     0.88100
C1259       C  0.67255136  0.24295398  0.74633485     0.88100
C1260       C  0.66886537  0.34030043  0.74245217     0.88300
O1261       O  0.65340155  0.61737219  0.53491369    -0.74000
O1262       O  0.65195706  0.54440332  0.52726963    -0.74000
O1263       O  0.68913928  0.57993545  0.53580825    -0.74100
O1264       O  0.61587489  0.58185807  0.52555073    -0.74100
O1265       O  0.61901660  0.58339148  0.94124046    -0.74100
O1266       O  0.69212476  0.58245700  0.95201501    -0.74000
O1267       O  0.65499988  0.54606920  0.94336403    -0.74000
O1268       O  0.65575611  0.61945017  0.95090695    -0.74100
Ni1269     Ni  0.65244255  0.58081252  0.53383049     1.25400
Ni1270     Ni  0.65561764  0.58288822  0.94389295     1.25400
C1271       C  0.65471307  0.63054044  0.99431355     0.88200
C1272       C  0.65330456  0.53294583  0.98428654     0.88100
C1273       C  0.70288897  0.58112361  0.49553618     0.88100
C1274       C  0.60546590  0.58301003  0.48162772     0.88300
O1275       O  0.69437268  0.58338704  0.70203463    -0.74000
O1276       O  0.62118226  0.58283315  0.69276303    -0.74000
O1277       O  0.65722341  0.61977367  0.70113725    -0.74100
O1278       O  0.65780806  0.54651156  0.69394148    -0.74100
O1279       O  0.65514414  0.54475179  0.77800109    -0.74100
O1280       O  0.65550037  0.61771965  0.78515920    -0.74000
O1281       O  0.61866803  0.58151057  0.77721981    -0.74000
O1282       O  0.69171830  0.58094368  0.78630472    -0.74100
Ni1283     Ni  0.65780809  0.58320765  0.69443284     1.25400
Ni1284     Ni  0.65514133  0.58116050  0.78461505     1.25400
C1285       C  0.70503981  0.58220091  0.74564179     0.88200
C1286       C  0.60795321  0.58211821  0.73362875     0.88100
C1287       C  0.65621114  0.63097136  0.74441842     0.88100
C1288       C  0.65625435  0.53345149  0.73489277     0.88300
O1289       O  0.05326273  0.31299187  0.47745876    -0.74000
O1290       O  0.12641871  0.30959695  0.97779240    -0.74000
O1291       O  0.09008829  0.31127109  0.90434570    -0.74100
O1292       O  0.08971088  0.31133874  0.55031291    -0.74100
O1293       O  0.08845990  0.26871308  0.54987278    -0.74100
O1294       O  0.08779032  0.26869071  0.90401563    -0.74000
O1295       O  0.12463111  0.26728765  0.47560651    -0.74000
O1296       O  0.05156976  0.27035751  0.97800487    -0.74100
Ni1297     Ni  0.08996475  0.31280395  0.97740272     1.25400
Ni1298     Ni  0.08805819  0.26724278  0.97688800     1.25400
C1299       C  0.04042569  0.29218049  0.97815614     0.88200
C1300       C  0.13781228  0.28790926  0.97670295     0.88100
C1301       C  0.08897682  0.28997590  0.88014973     0.88100
C1302       C  0.08910366  0.29000258  0.57411932     0.88300
O1303       O  0.05345922  0.31300941  0.72727129    -0.74000
O1304       O  0.12663282  0.30923940  0.72794715    -0.74000
O1305       O  0.09031784  0.31121639  0.65438704    -0.74100
O1306       O  0.08984571  0.31125397  0.80026453    -0.74100
O1307       O  0.08832556  0.26863773  0.79991278    -0.74100
O1308       O  0.08781820  0.26864740  0.65395538    -0.74000
O1309       O  0.12458114  0.26689632  0.72583783    -0.74000
O1310       O  0.05153988  0.27038597  0.72777272    -0.74100
Ni1311     Ni  0.09014265  0.31268958  0.72739767     1.25400
Ni1312     Ni  0.08798932  0.26714081  0.72686474     1.25400
C1313       C  0.04047459  0.29223670  0.72788842     0.88200
C1314       C  0.13787362  0.28745179  0.72699734     0.88100
C1315       C  0.08909233  0.28995326  0.63014324     0.88100
C1316       C  0.08905861  0.28994752  0.82411847     0.88300
O1317       O  0.99967910  0.27228761  0.47993947    -0.74000
O1318       O  0.92672559  0.27437855  0.97982330    -0.74000
O1319       O  0.96341053  0.27336209  0.90712365    -0.74100
O1320       O  0.96299289  0.27340789  0.55308002    -0.74100
O1321       O  0.96463455  0.31602024  0.55344184    -0.74100
O1322       O  0.96395450  0.31600322  0.90755390    -0.74000
O1323       O  0.92757181  0.31681483  0.48213069    -0.74000
O1324       O  0.00098126  0.31494022  0.97935005    -0.74100
Ni1325     Ni  0.96312695  0.27188273  0.48001687     1.25400
Ni1326     Ni  0.96430231  0.31747440  0.48057314     1.25400
C1327       C  0.01233360  0.29323029  0.47920868     0.88200
C1328       C  0.91485386  0.29584181  0.48174642     0.88100
C1329       C  0.96377206  0.29470157  0.88331406     0.88100
C1330       C  0.96373317  0.29471670  0.57729268     0.88300
O1331       O  0.99974336  0.27237884  0.72963458    -0.74000
O1332       O  0.92668533  0.27456209  0.73028188    -0.74000
O1333       O  0.96319848  0.27341930  0.65717509    -0.74100
O1334       O  0.96320326  0.27344632  0.80306010    -0.74100
O1335       O  0.96488565  0.31605874  0.80347697    -0.74100
O1336       O  0.96386751  0.31605834  0.65754129    -0.74000
O1337       O  0.92771994  0.31698413  0.73245005    -0.74000
O1338       O  0.00104734  0.31502524  0.72909135    -0.74100
Ni1339     Ni  0.96316730  0.27196365  0.73004867     1.25400
Ni1340     Ni  0.96442579  0.31755728  0.73058294     1.25400
C1341       C  0.01242617  0.29331701  0.72889540     0.88200
C1342       C  0.91495264  0.29604874  0.73225857     0.88100
C1343       C  0.96357295  0.29473925  0.63332779     0.88100
C1344       C  0.96397684  0.29473635  0.82729378     0.88300
C1345       C  0.78976147  0.30643662  0.78038347    -0.05000
C1346       C  0.80316439  0.29645841  0.73849161     0.09100
C1347       C  0.78955763  0.28550400  0.69804093    -0.02400
C1348       C  0.76265702  0.28424766  0.69938089    -0.00700
C1349       C  0.74882276  0.29434921  0.74144440    -0.04300
C1350       C  0.76283392  0.30534947  0.78227472     0.02700
C1351       C  0.83181321  0.29667450  0.73761668     0.09600
C1352       C  0.80352481  0.27529663  0.65504000     0.35500
C1353       C  0.74992239  0.31611598  0.82619277     0.38900
C1354       C  0.84546969  0.27463159  0.75164168    -0.04700
C1355       C  0.87239311  0.27484714  0.75244870     0.02500
C1356       C  0.88620853  0.29651535  0.73465846    -0.04300
C1357       C  0.87216192  0.31842838  0.71909862    -0.00500
C1358       C  0.84522003  0.31870507  0.72231923    -0.03100
C1359       C  0.83169014  0.25143729  0.76443161     0.36200
C1360       C  0.88502434  0.34059848  0.69813679     0.39800
C1361       C  0.88550198  0.25288527  0.77356639     0.38900
C1362       C  0.83114460  0.34169199  0.70961338     0.35900
C1363       C  0.80393507  0.31807215  0.82143596     0.36600
C1364       C  0.74966850  0.27164714  0.65776080     0.39800
N1365       N  0.89581715  0.23538311  0.79079695    -0.38300
N1366       N  0.82069526  0.23284977  0.77388985    -0.39900
N1367       N  0.89513099  0.35831090  0.68115530    -0.37600
N1368       N  0.81988307  0.36007256  0.69992653    -0.40000
N1369       N  0.81499073  0.26720215  0.62110144    -0.39800
N1370       N  0.73968735  0.26162803  0.62405741    -0.37400
N1371       N  0.73981140  0.32479444  0.86134219    -0.38400
N1372       N  0.81558208  0.32745025  0.85363480    -0.40100
C1373       C  0.64469223  0.46381154  0.77245579    -0.05000
C1374       C  0.65804255  0.45057579  0.73405151     0.09100
C1375       C  0.66925915  0.46431684  0.69382448    -0.02400
C1376       C  0.66841915  0.49128266  0.69330897    -0.00700
C1377       C  0.65580435  0.50483253  0.73288140    -0.04300
C1378       C  0.64314631  0.49071656  0.77149158     0.02700
C1379       C  0.66075368  0.42210743  0.73643894     0.09600
C1380       C  0.68198709  0.45053313  0.65314424     0.35500
C1381       C  0.62779152  0.50358856  0.80976646     0.38900
C1382       C  0.63961384  0.40614013  0.72651747    -0.04700
C1383       C  0.64226079  0.37935207  0.72898203     0.02500
C1384       C  0.66609862  0.36838459  0.74098148    -0.04300
C1385       C  0.68729259  0.38428843  0.75029347    -0.00500
C1386       C  0.68461655  0.41108496  0.74830345    -0.03100
C1387       C  0.61515645  0.41728615  0.71345653     0.36200
C1388       C  0.71210129  0.37312187  0.76000733     0.39800
C1389       C  0.62032754  0.36313476  0.71949966     0.38900
C1390       C  0.70648658  0.42736099  0.75813761     0.35900
C1391       C  0.63264833  0.44967355  0.81334483     0.36600
C1392       C  0.68133580  0.50476554  0.65260769     0.39800
N1393       N  0.60260113  0.35052749  0.71188303    -0.38300
N1394       N  0.59561860  0.42616051  0.70320870    -0.39900
N1395       N  0.73208877  0.36451028  0.76717097    -0.37600
N1396       N  0.72390415  0.44038717  0.76590761    -0.40000
N1397       N  0.69213715  0.43935592  0.62098469    -0.39800
N1398       N  0.69163145  0.51534191  0.61991204    -0.37400
N1399       N  0.61553998  0.51376375  0.84034246    -0.38400
N1400       N  0.62298543  0.43837249  0.84582155    -0.40100
C1401       C  0.78961981  0.28146138  0.94842933    -0.05000
C1402       C  0.80291099  0.29543014  0.98583429     0.09100
C1403       C  0.78897748  0.30820088  0.52444164    -0.02400
C1404       C  0.76206175  0.30686646  0.52578649    -0.00700
C1405       C  0.74857427  0.29308944  0.98752624    -0.04300
C1406       C  0.76269272  0.28019244  0.94919759     0.02700
C1407       C  0.83157927  0.29600689  0.48597287     0.09600
C1408       C  0.80252938  0.32268404  0.56282649     0.35500
C1409       C  0.74979113  0.26447205  0.91173488     0.38900
C1410       C  0.84505401  0.31821009  0.97183995    -0.04700
C1411       C  0.87201296  0.31810173  0.96899795     0.02500
C1412       C  0.88607851  0.29616536  0.48385855    -0.04300
C1413       C  0.87230370  0.27429941  0.50082103    -0.00500
C1414       C  0.84536846  0.27400167  0.50005397    -0.03100
C1415       C  0.83106267  0.34145394  0.96058049     0.36200
C1416       C  0.88547503  0.25214277  0.52100842     0.39800
C1417       C  0.88483358  0.34060533  0.94934634     0.38900
C1418       C  0.83173855  0.25087056  0.51400647     0.35900
C1419       C  0.80385169  0.26794425  0.90953094     0.36600
C1420       C  0.74857925  0.31987128  0.56653863     0.39800
N1421       N  0.89489565  0.35859875  0.93344758    -0.38300
N1422       N  0.81992186  0.36006464  0.95210587    -0.39900
N1423       N  0.89583178  0.23446008  0.53739845    -0.37600
N1424       N  0.82087868  0.23238193  0.52476912    -0.40000
N1425       N  0.81346354  0.33441170  0.59299654    -0.39800
N1426       N  0.73796800  0.33021257  0.59925527    -0.37400
N1427       N  0.73959152  0.25187024  0.88186819    -0.38400
N1428       N  0.81546132  0.25698609  0.87910551    -0.40100
C1429       C  0.64413345  0.46293438  0.52337153    -0.05000
C1430       C  0.65673989  0.44987615  0.48378070     0.09100
C1431       C  0.66694637  0.46380076  0.94283363    -0.02400
C1432       C  0.66527300  0.49073706  0.94199845    -0.00700
C1433       C  0.65333558  0.50418626  0.98255979    -0.04300
C1434       C  0.64223579  0.48986737  0.52276295     0.02700
C1435       C  0.65969507  0.42133411  0.48529895     0.09600
C1436       C  0.67962662  0.45029334  0.90177105     0.35500
C1437       C  0.62818567  0.50243612  0.56329076     0.38900
C1438       C  0.63855954  0.40515369  0.97669844    -0.04700
C1439       C  0.64156466  0.37833576  0.97733233     0.02500
C1440       C  0.66579990  0.36750632  0.48534401    -0.04300
C1441       C  0.68709547  0.38358333  0.49243050    -0.00500
C1442       C  0.68397192  0.41037343  0.49363152    -0.03100
C1443       C  0.61365895  0.41618562  0.96691197     0.36200
C1444       C  0.71243898  0.37269583  0.49597606     0.39800
C1445       C  0.61952002  0.36202751  0.96981047     0.38900
C1446       C  0.70578977  0.42673471  0.50332556     0.35900
C1447       C  0.63324822  0.44855185  0.56512546     0.36600
C1448       C  0.67648524  0.50422086  0.89946990     0.39800
N1449       N  0.60165043  0.34941396  0.96373196    -0.38300
N1450       N  0.59377353  0.42497597  0.95932486    -0.39900
N1451       N  0.73288605  0.36443544  0.49768808    -0.37600
N1452       N  0.72314416  0.43984892  0.51106190    -0.40000
N1453       N  0.68987290  0.43928771  0.86953019    -0.39800
N1454       N  0.68531378  0.51457104  0.86489822    -0.37400
N1455       N  0.61699220  0.51240521  0.59565949    -0.38400
N1456       N  0.62446001  0.43697792  0.59816927    -0.40100
C1457       C  0.48154432  0.59551097  0.70270912    -0.05000
C1458       C  0.49691000  0.58101267  0.73598469     0.09100
C1459       C  0.48503297  0.56622606  0.77421661    -0.02400
C1460       C  0.45817570  0.56538666  0.77830752    -0.00700
C1461       C  0.44277386  0.58011458  0.74537806    -0.04300
C1462       C  0.45473485  0.59561620  0.70829939     0.02700
C1463       C  0.52558451  0.58169228  0.73185942     0.09600
C1464       C  0.50052207  0.55218703  0.81021749     0.35500
C1465       C  0.43954981  0.61257212  0.67708201     0.38900
C1466       C  0.53913548  0.60451628  0.74241073    -0.04700
C1467       C  0.56603784  0.60483785  0.74044901     0.02500
C1468       C  0.57972639  0.58214089  0.73069455    -0.04300
C1469       C  0.56636375  0.55939670  0.71957156    -0.00500
C1470       C  0.53940846  0.55928433  0.71906110    -0.03100
C1471       C  0.52550601  0.62769003  0.75610613     0.36200
C1472       C  0.58034335  0.53593718  0.70985323     0.39800
C1473       C  0.57962283  0.62875768  0.74712584     0.38900
C1474       C  0.52588941  0.53603402  0.70554391     0.35900
C1475       C  0.49328026  0.61051459  0.66271079     0.36600
C1476       C  0.44652297  0.54888376  0.81601688     0.39800
N1477       N  0.59018242  0.64805805  0.75152412    -0.38300
N1478       N  0.51469985  0.64625521  0.76677284    -0.39900
N1479       N  0.59137025  0.51711577  0.70242440    -0.37600
N1480       N  0.51507853  0.51750886  0.69475348    -0.40000
N1481       N  0.51291615  0.54099889  0.83882800    -0.39800
N1482       N  0.43726747  0.53572720  0.84612713    -0.37400
N1483       N  0.42726313  0.62614042  0.65265115    -0.38400
N1484       N  0.50258426  0.62261050  0.63094815    -0.40100
C1485       C  0.53698884  0.60759504  0.47813390    -0.05000
C1486       C  0.52305615  0.58450735  0.47467369     0.09100
C1487       C  0.53637352  0.56107111  0.97010749    -0.02400
C1488       C  0.56331858  0.56062895  0.97163321    -0.00700
C1489       C  0.57720642  0.58364699  0.47737101    -0.04300
C1490       C  0.56396729  0.60716806  0.47889304     0.02700
C1491       C  0.49446183  0.58447380  0.48073517     0.09600
C1492       C  0.52226095  0.53733921  0.96510266     0.35500
C1493       C  0.57808643  0.63099218  0.48065018     0.38900
C1494       C  0.47822928  0.59301350  0.94161052    -0.04700
C1495       C  0.45137507  0.59258194  0.94792890     0.02500
C1496       C  0.44023450  0.58316535  0.99341186    -0.04300
C1497       C  0.45690964  0.57544576  0.53326874    -0.00500
C1498       C  0.48363461  0.57597919  0.52661346    -0.03100
C1499       C  0.48928711  0.60264637  0.89504676     0.36200
C1500       C  0.44700629  0.56638681  0.58136181     0.39800
C1501       C  0.43546181  0.60333827  0.90853192     0.38900
C1502       C  0.50028839  0.56762262  0.56720997     0.35900
C1503       C  0.52353971  0.63176457  0.48206889     0.36600
C1504       C  0.57682188  0.53649525  0.96749694     0.39800
N1505       N  0.42270667  0.61219254  0.87746492    -0.38300
N1506       N  0.49816259  0.61061447  0.85814139    -0.39900
N1507       N  0.43932078  0.55877750  0.61961181    -0.37600
N1508       N  0.51384474  0.56090893  0.59903169    -0.40000
N1509       N  0.51090270  0.51845111  0.96134827    -0.39800
N1510       N  0.58754819  0.51722475  0.96394548    -0.37400
N1511       N  0.58911747  0.65015586  0.48134651    -0.38400
N1512       N  0.51278032  0.65104738  0.48492777    -0.40100
C1513       C  0.26421255  0.27136126  0.70301127    -0.05000
C1514       C  0.24941831  0.28392285  0.74022765     0.09100
C1515       C  0.26163979  0.29628245  0.78111235    -0.02400
C1516       C  0.28850741  0.29659599  0.78434096    -0.00700
C1517       C  0.30347097  0.28434436  0.74654329    -0.04300
C1518       C  0.29103936  0.27111448  0.70660684     0.02700
C1519       C  0.22088969  0.28455635  0.73587081     0.09600
C1520       C  0.24639480  0.30928485  0.81917028     0.35500
C1521       C  0.30570521  0.25640209  0.66998218     0.38900
C1522       C  0.20634241  0.26248104  0.74594302    -0.04700
C1523       C  0.17944104  0.26319705  0.74281464     0.02500
C1524       C  0.16663379  0.28606570  0.72812719    -0.04300
C1525       C  0.18171220  0.30784778  0.71571669    -0.00500
C1526       C  0.20848912  0.30724443  0.72118253    -0.03100
C1527       C  0.21916661  0.23894079  0.76007499     0.36200
C1528       C  0.17015657  0.33083279  0.69531389     0.39800
C1529       C  0.16535655  0.24017529  0.75550819     0.38900
C1530       C  0.22343837  0.33015849  0.71188640     0.35900
C1531       C  0.25177240  0.25901223  0.66041255     0.36600
C1532       C  0.30054282  0.31052289  0.82553340     0.39800
N1533       N  0.15434200  0.22166369  0.76552076    -0.38300
N1534       N  0.22940092  0.22013471  0.77095617    -0.39900
N1535       N  0.16114633  0.34918559  0.67869536    -0.37600
N1536       N  0.23543761  0.34839953  0.70485645    -0.40000
N1537       N  0.23394181  0.31977067  0.84892657    -0.39800
N1538       N  0.31006597  0.32168632  0.85837533    -0.37400
N1539       N  0.31746101  0.24457134  0.64103789    -0.38400
N1540       N  0.24179887  0.24917992  0.62648827    -0.40100
C1541       C  0.49767620  0.31069962  0.73175803    -0.05000
C1542       C  0.51127397  0.28929704  0.74987823     0.09100
C1543       C  0.49770874  0.26755675  0.76670414    -0.02400
C1544       C  0.47082293  0.26802710  0.76886929    -0.00700
C1545       C  0.45729670  0.28883314  0.74789418    -0.04300
C1546       C  0.47093922  0.30956507  0.72688077     0.02700
C1547       C  0.53986521  0.28934682  0.74951636     0.09600
C1548       C  0.51137247  0.24455732  0.78091711     0.35500
C1549       C  0.45762406  0.32961648  0.69977898     0.38900
C1550       C  0.55352285  0.30313552  0.78656869    -0.04700
C1551       C  0.58044194  0.30363452  0.78541772     0.02500
C1552       C  0.59406797  0.28981776  0.74764073    -0.04300
C1553       C  0.58017759  0.27598190  0.71047877    -0.00500
C1554       C  0.55326315  0.27590118  0.71142523    -0.03100
C1555       C  0.53975945  0.31707350  0.82565069     0.36200
C1556       C  0.59335850  0.26134277  0.67154912     0.39800
C1557       C  0.59392674  0.31943606  0.82187103     0.38900
C1558       C  0.53917830  0.26187872  0.67314487     0.35900
C1559       C  0.51106185  0.33415985  0.71952900     0.36600
C1560       C  0.45714076  0.24674238  0.79135046     0.39800
N1561       N  0.60472956  0.33208734  0.85077347    -0.38300
N1562       N  0.52869087  0.32822990  0.85663499    -0.39900
N1563       N  0.60377662  0.24973711  0.64029386    -0.37600
N1564       N  0.52773338  0.25060948  0.64305153    -0.40000
N1565       N  0.52225904  0.22612046  0.79179460    -0.39800
N1566       N  0.44628016  0.22980619  0.80956288    -0.37400
N1567       N  0.44709913  0.34543086  0.67743824    -0.38400
N1568       N  0.52166414  0.35306314  0.71074694    -0.40100
C1569       C  0.35490361  0.46078151  0.79573676    -0.05000
C1570       C  0.36969671  0.44754580  0.75931294     0.09100
C1571       C  0.38275850  0.46166500  0.72167208    -0.02400
C1572       C  0.38152480  0.48868508  0.72116158    -0.00700
C1573       C  0.36678839  0.50203290  0.75781681    -0.04300
C1574       C  0.35312911  0.48773798  0.79442845     0.02700
C1575       C  0.37167213  0.41878040  0.76059690     0.09600
C1576       C  0.39773449  0.44828545  0.68359359     0.35500
C1577       C  0.33608443  0.50057383  0.82934836     0.38900
C1578       C  0.35020417  0.40332333  0.74959165    -0.04700
C1579       C  0.35238658  0.37640450  0.74927925     0.02500
C1580       C  0.37610070  0.36462322  0.75910266    -0.04300
C1581       C  0.39741434  0.37994622  0.77112528    -0.00500
C1582       C  0.39517146  0.40686545  0.77231213    -0.03100
C1583       C  0.32581839  0.41505266  0.73807491     0.36200
C1584       C  0.42168085  0.36810439  0.78291847     0.39800
C1585       C  0.33008494  0.36083030  0.73884818     0.38900
C1586       C  0.41712500  0.42233485  0.78577610     0.35900
C1587       C  0.34146034  0.44661414  0.83477463     0.36600
C1588       C  0.39618997  0.50263478  0.68368461     0.39800
N1589       N  0.31219550  0.34867165  0.72995013    -0.38300
N1590       N  0.30631636  0.42433354  0.72901267    -0.39900
N1591       N  0.44101785  0.35901953  0.79388100    -0.37600
N1592       N  0.43464577  0.43468264  0.79642516    -0.40000
N1593       N  0.40979962  0.43736378  0.65378615    -0.39800
N1594       N  0.40796230  0.51366109  0.65371459    -0.37400
N1595       N  0.32214136  0.51064665  0.85688254    -0.38400
N1596       N  0.33061053  0.43516404  0.86550867    -0.40100
C1597       C  0.20651766  0.26355172  0.49368617    -0.05000
C1598       C  0.22079595  0.28571210  0.48310542     0.09100
C1599       C  0.20820602  0.30832708  0.96955810    -0.02400
C1600       C  0.18139493  0.30878489  0.96497471    -0.00700
C1601       C  0.16651500  0.28687929  0.47735697    -0.04300
C1602       C  0.17959522  0.26411159  0.49167876     0.02700
C1603       C  0.24929019  0.28536408  0.48739111     0.09600
C1604       C  0.22290300  0.33149631  0.96117512     0.35500
C1605       C  0.16576942  0.24113432  0.50569094     0.38900
C1606       C  0.26440286  0.27377444  0.94933100    -0.04700
C1607       C  0.29125346  0.27411215  0.95284881     0.02500
C1608       C  0.30333267  0.28633494  0.49440881    -0.04300
C1609       C  0.28798952  0.29717729  0.53342057    -0.00500
C1610       C  0.26117146  0.29671021  0.52964525    -0.03100
C1611       C  0.25215086  0.26145485  0.90652541     0.36200
C1612       C  0.29941615  0.30924284  0.57742195     0.39800
C1613       C  0.30618219  0.26092383  0.91440945     0.38900
C1614       C  0.24555523  0.30818712  0.56905672     0.35900
C1615       C  0.21967159  0.24018224  0.50770625     0.36600
C1616       C  0.16953635  0.33193190  0.94599135     0.39800
N1617       N  0.31810517  0.25038729  0.88381773    -0.38300
N1618       N  0.24229444  0.25150482  0.87260703    -0.39900
N1619       N  0.30814527  0.31870071  0.61308242    -0.37600
N1620       N  0.23276889  0.31740995  0.59987072    -0.40000
N1621       N  0.23466032  0.34996936  0.95496002    -0.39800
N1622       N  0.16029352  0.35044688  0.93061195    -0.37400
N1623       N  0.15495697  0.22268106  0.51690282    -0.38400
N1624       N  0.23022270  0.22155540  0.51859399    -0.40100
C1625       C  0.49750981  0.31465022  0.99240456    -0.05000
C1626       C  0.51099619  0.29182401  0.50324076     0.09100
C1627       C  0.49755146  0.26962550  0.51782503    -0.02400
C1628       C  0.47071498  0.27010511  0.52167237    -0.00700
C1629       C  0.45708657  0.29224787  0.50755266    -0.04300
C1630       C  0.47060985  0.31480259  0.99418384     0.02700
C1631       C  0.53952993  0.29141689  0.49978222     0.09600
C1632       C  0.51133740  0.24611471  0.52759469     0.35500
C1633       C  0.45687077  0.33835453  0.98473624     0.38900
C1634       C  0.55432130  0.30189725  0.53898495    -0.04700
C1635       C  0.58116214  0.30162578  0.53599239     0.02500
C1636       C  0.59377943  0.29050743  0.99333577    -0.04300
C1637       C  0.57855979  0.28058768  0.95325667    -0.00500
C1638       C  0.55168401  0.28097520  0.95698504    -0.03100
C1639       C  0.54169106  0.31331349  0.58229057     0.36200
C1640       C  0.59006087  0.26959309  0.90816314     0.39800
C1641       C  0.59552781  0.31414225  0.57596939     0.38900
C1642       C  0.53610782  0.27028585  0.91698330     0.35900
C1643       C  0.51130507  0.33775416  0.97916349     0.36600
C1644       C  0.45718296  0.24788865  0.54063630     0.39800
N1645       N  0.60700672  0.32418633  0.60770692    -0.38300
N1646       N  0.53133180  0.32257009  0.61640319    -0.39900
N1647       N  0.59873555  0.26076521  0.87171900    -0.37600
N1648       N  0.52306264  0.26180180  0.88597747    -0.40000
N1649       N  0.52235344  0.22729253  0.53476219    -0.39800
N1650       N  0.44648504  0.23025970  0.55648785    -0.37400
N1651       N  0.44619930  0.35739735  0.97795487    -0.38400
N1652       N  0.52236524  0.35619350  0.96888692    -0.40100
C1653       C  0.39057072  0.46541213  0.52571349    -0.05000
C1654       C  0.36907144  0.45037582  0.51401192     0.09100
C1655       C  0.34596491  0.46245941  0.00060764    -0.02400
C1656       C  0.34434212  0.48940771  0.99919134    -0.00700
C1657       C  0.36539888  0.50449126  0.51447051    -0.04300
C1658       C  0.38878784  0.49232412  0.52562153     0.02700
C1659       C  0.37129365  0.42192740  0.01257780     0.09600
C1660       C  0.32398405  0.44695398  0.98753959     0.35500
C1661       C  0.41185882  0.50723594  0.53079478     0.38900
C1662       C  0.36365420  0.40708458  0.55436854    -0.04700
C1663       C  0.36630356  0.38018483  0.55343811     0.02500
C1664       C  0.37627322  0.36764326  0.00990014    -0.04300
C1665       C  0.38398460  0.38293669  0.96792774    -0.00500
C1666       C  0.38152275  0.40979253  0.96947371    -0.03100
C1667       C  0.35262847  0.41987129  0.59805043     0.36200
C1668       C  0.39513360  0.37134507  0.92321500     0.39800
C1669       C  0.35818710  0.36578352  0.59729599     0.38900
C1670       C  0.38958910  0.42522789  0.92669338     0.35900
C1671       C  0.41483383  0.45310987  0.53591809     0.36600
C1672       C  0.32146341  0.50121418  0.97946105     0.39800
N1673       N  0.35183950  0.35418963  0.63235894    -0.38300
N1674       N  0.34368113  0.43063168  0.63208251    -0.39900
N1675       N  0.40407245  0.36156035  0.88808378    -0.37600
N1676       N  0.39600393  0.43795820  0.89320061    -0.40000
N1677       N  0.30644940  0.43453043  0.97734390    -0.39800
N1678       N  0.30303331  0.51002849  0.96295839    -0.37400
N1679       N  0.43090622  0.51827876  0.53328554    -0.38400
N1680       N  0.43421008  0.44328137  0.54368558    -0.40100
C1681       C  0.64561213  0.69915048  0.79445605    -0.05000
C1682       C  0.65648056  0.71387302  0.75543410     0.09100
C1683       C  0.66675619  0.70173114  0.71237354    -0.02400
C1684       C  0.66617363  0.67487903  0.70792434    -0.00700
C1685       C  0.65589892  0.65964968  0.74772401    -0.04300
C1686       C  0.64545476  0.67222724  0.79109676     0.02700
C1687       C  0.65691619  0.74239913  0.75921310     0.09600
C1688       C  0.67820978  0.71714052  0.67271869     0.35500
C1689       C  0.63355236  0.65789434  0.83191451     0.38900
C1690       C  0.67962778  0.75512630  0.77223126    -0.04700
C1691       C  0.68024898  0.78204890  0.77524902     0.02500
C1692       C  0.65826422  0.79676757  0.76270240    -0.04300
C1693       C  0.63549246  0.78357143  0.74898921    -0.00500
C1694       C  0.63484439  0.75660036  0.74812399    -0.03100
C1695       C  0.70258786  0.74036239  0.78175912     0.36200
C1696       C  0.61263701  0.79730508  0.73422588     0.39800
C1697       C  0.70364890  0.79413567  0.79231015     0.38900
C1698       C  0.61144901  0.74328669  0.73498205     0.35900
C1699       C  0.63427889  0.71189371  0.83794027     0.36600
C1700       C  0.67660175  0.66345444  0.66220942     0.39800
N1701       N  0.72239881  0.80357364  0.80596374    -0.38300
N1702       N  0.72089543  0.72855563  0.78895134    -0.39900
N1703       N  0.59429815  0.80805078  0.72238670    -0.37600
N1704       N  0.59280467  0.73260679  0.72481028    -0.40000
N1705       N  0.68747575  0.72972668  0.64175226    -0.39800
N1706       N  0.68486910  0.65497292  0.62508250    -0.37400
N1707       N  0.62391782  0.64665870  0.86452583    -0.38400
N1708       N  0.62507412  0.72218488  0.87229556    -0.40100
C1709       C  0.67898508  0.75483238  0.51989148    -0.05000
C1710       C  0.65619882  0.74217957  0.50672708     0.09100
C1711       C  0.63416340  0.75657265  0.99641705    -0.02400
C1712       C  0.63487067  0.78357272  0.99846976    -0.00700
C1713       C  0.65781294  0.79671009  0.51154713    -0.04300
C1714       C  0.67981917  0.78178003  0.52289265     0.02700
C1715       C  0.65558387  0.71343813  0.00349914     0.09600
C1716       C  0.61063146  0.74356616  0.98297440     0.35500
C1717       C  0.70352965  0.79367749  0.53875240     0.38900
C1718       C  0.64245630  0.69909535  0.54032590    -0.04700
C1719       C  0.64187226  0.67215137  0.53719301     0.02500
C1720       C  0.65506634  0.65912491  0.99764705    -0.04300
C1721       C  0.66875129  0.67375172  0.96136950    -0.00500
C1722       C  0.66858218  0.70069743  0.96390168    -0.03100
C1723       C  0.62960558  0.71208095  0.58186074     0.36200
C1724       C  0.68405977  0.66129578  0.92252339     0.39800
C1725       C  0.62713602  0.65804657  0.57456237     0.38900
C1726       C  0.68211231  0.71547891  0.92593397     0.35900
C1727       C  0.70178445  0.73996040  0.53026577     0.36600
C1728       C  0.61176702  0.79748422  0.98602989     0.39800
N1729       N  0.61540052  0.64692954  0.60452219    -0.38300
N1730       N  0.61928240  0.72249644  0.61481284    -0.39900
N1731       N  0.69635618  0.65144609  0.89159110    -0.37600
N1732       N  0.69297943  0.72748552  0.89611770    -0.40000
N1733       N  0.59184170  0.73321037  0.97255509    -0.39800
N1734       N  0.59319813  0.80836951  0.97621515    -0.37400
N1735       N  0.72254828  0.80293635  0.55135303    -0.38400
N1736       N  0.71994332  0.72805009  0.53824569    -0.40100
C1737       C  0.64840155  0.11841245  0.74420757    -0.05000
C1738       C  0.67158863  0.13134560  0.75197058     0.09100
C1739       C  0.69386193  0.11741013  0.76270939    -0.02400
C1740       C  0.69301268  0.09050722  0.76642601    -0.00700
C1741       C  0.66958654  0.07707858  0.75925355    -0.04300
C1742       C  0.64722321  0.09156095  0.74803787     0.02700
C1743       C  0.67227305  0.15990908  0.75056110     0.09600
C1744       C  0.71776104  0.13094832  0.77020379     0.35500
C1745       C  0.62270022  0.07935133  0.73974664     0.38900
C1746       C  0.66241612  0.17406196  0.79160241    -0.04700
C1747       C  0.66257295  0.20099623  0.79043800     0.02500
C1748       C  0.67246729  0.21423541  0.74761194    -0.04300
C1749       C  0.68194681  0.19965735  0.70597384    -0.00500
C1750       C  0.68214769  0.17269614  0.70795193    -0.03100
C1751       C  0.65166801  0.16066961  0.83481537     0.36200
C1752       C  0.69154297  0.21200653  0.66066425     0.39800
C1753       C  0.65154756  0.21470554  0.83300028     0.38900
C1754       C  0.69261166  0.15791707  0.66612895     0.35900
C1755       C  0.62558121  0.13294438  0.73221332     0.36600
C1756       C  0.71652061  0.07716517  0.77833867     0.39800
N1757       N  0.64276008  0.22541926  0.86724722    -0.38300
N1758       N  0.64290036  0.14966496  0.86862942    -0.39900
N1759       N  0.69889592  0.22164798  0.62401517    -0.37600
N1760       N  0.70112647  0.14590869  0.63328629    -0.40000
N1761       N  0.73678601  0.14178914  0.77602743    -0.39800
N1762       N  0.73541649  0.06676554  0.78771076    -0.37400
N1763       N  0.60303712  0.06985662  0.73304438    -0.38400
N1764       N  0.60741496  0.14454396  0.72273708    -0.40100
C1765       C  0.65834919  0.11891327  0.54432795    -0.05000
C1766       C  0.67128813  0.13102084  0.50380625     0.09100
C1767       C  0.68347670  0.11580381  0.96629256    -0.02400
C1768       C  0.68302183  0.08887964  0.96974531    -0.00700
C1769       C  0.66993689  0.07689853  0.51014968    -0.04300
C1770       C  0.65754737  0.09198020  0.54727838     0.02700
C1771       C  0.67171878  0.15969463  0.50009831     0.09600
C1772       C  0.69618937  0.12795294  0.92378937     0.35500
C1773       C  0.64439504  0.07973248  0.58913213     0.38900
C1774       C  0.69470542  0.17329259  0.00713426    -0.04700
C1775       C  0.69503940  0.20021945  0.00332356     0.02500
C1776       C  0.67226437  0.21378920  0.49414030    -0.04300
C1777       C  0.64918685  0.20023866  0.48819371    -0.00500
C1778       C  0.64900003  0.17329389  0.48989325    -0.03100
C1779       C  0.71800950  0.15968185  0.01918531     0.36200
C1780       C  0.62536761  0.21398760  0.48243195     0.39800
C1781       C  0.71881644  0.21409611  0.00940679     0.38900
C1782       C  0.62534583  0.15955544  0.48114427     0.35900
C1783       C  0.64570885  0.13422467  0.58286940     0.36600
C1784       C  0.69533561  0.07353535  0.93080400     0.39800
N1785       N  0.73777568  0.22514745  0.01445320    -0.38300
N1786       N  0.73659875  0.14880099  0.02877877    -0.39900
N1787       N  0.60611398  0.22458875  0.47848973    -0.37600
N1788       N  0.60648686  0.14860338  0.47414300    -0.40000
N1789       N  0.70643280  0.13776722  0.89014563    -0.39800
N1790       N  0.70514820  0.06120349  0.89989422    -0.37400
N1791       N  0.63390444  0.06975600  0.62228023    -0.38400
N1792       N  0.63547052  0.14663419  0.61309341    -0.40100
C1793       C  0.24630510  0.59109744  0.73670510    -0.05000
C1794       C  0.23397856  0.58059774  0.77946858     0.09100
C1795       C  0.24881347  0.57111632  0.81974810    -0.02400
C1796       C  0.27575516  0.57201853  0.81729818    -0.00700
C1797       C  0.28838318  0.58098543  0.77294505    -0.04300
C1798       C  0.27318942  0.59085849  0.73294714     0.02700
C1799       C  0.20530371  0.57997308  0.78226279     0.09600
C1800       C  0.23628696  0.56035819  0.86400478     0.35500
C1801       C  0.28510649  0.60225527  0.68885344     0.38900
C1802       C  0.19203190  0.55682959  0.77506284    -0.04700
C1803       C  0.16503965  0.55637460  0.77479279     0.02500
C1804       C  0.15067133  0.57931059  0.78215420    -0.04300
C1805       C  0.16446584  0.60249042  0.79065484    -0.00500
C1806       C  0.19144859  0.60264569  0.79090951    -0.03100
C1807       C  0.20633075  0.53332280  0.76745420     0.36200
C1808       C  0.15138863  0.62655120  0.79963085     0.39800
C1809       C  0.15255546  0.53199600  0.76597195     0.38900
C1810       C  0.20517127  0.62631735  0.80034703     0.35900
C1811       C  0.23122817  0.60275958  0.69693387     0.36600
C1812       C  0.29007906  0.56411222  0.86136808     0.39800
N1813       N  0.14285653  0.51242606  0.75886475    -0.38300
N1814       N  0.21777381  0.51462081  0.76142933    -0.39900
N1815       N  0.14120879  0.64587742  0.80683951    -0.37600
N1816       N  0.21618038  0.64513976  0.80776405    -0.40000
N1817       N  0.22639970  0.55150067  0.89910321    -0.39800
N1818       N  0.30119648  0.55826326  0.89731352    -0.37400
N1819       N  0.29514192  0.61162574  0.65453468    -0.38400
N1820       N  0.21907336  0.61239740  0.66581944    -0.40100
C1821       C  0.19072375  0.59148533  0.99598327    -0.05000
C1822       C  0.20377638  0.58046432  0.53766044     0.09100
C1823       C  0.18930978  0.56931717  0.57736829    -0.02400
C1824       C  0.16237699  0.56905703  0.57531374    -0.00700
C1825       C  0.14952942  0.57987623  0.53359078    -0.04300
C1826       C  0.16377168  0.59125251  0.99410838     0.02700
C1827       C  0.23258006  0.58102365  0.53987892     0.09600
C1828       C  0.20208737  0.55801401  0.62048157     0.35500
C1829       C  0.15067237  0.60223023  0.95097061     0.38900
C1830       C  0.24578449  0.60459790  0.54361757    -0.04700
C1831       C  0.27276706  0.60521350  0.54166556     0.02500
C1832       C  0.28677677  0.58235785  0.03899726    -0.04300
C1833       C  0.27368809  0.55900289  0.04423043    -0.00500
C1834       C  0.24686434  0.55817446  0.04017680    -0.03100
C1835       C  0.23162642  0.62820805  0.55047648     0.36200
C1836       C  0.28741330  0.53656012  0.06097144     0.39800
C1837       C  0.28597050  0.62931406  0.54820475     0.38900
C1838       C  0.23420629  0.53363317  0.03541609     0.35900
C1839       C  0.20506060  0.60295748  0.95477589     0.36600
C1840       C  0.14777521  0.55843443  0.61710321     0.39800
N1841       N  0.29600731  0.64862158  0.55609717    -0.38300
N1842       N  0.22032119  0.64701753  0.55616563    -0.39900
N1843       N  0.29801300  0.51896449  0.07708175    -0.37600
N1844       N  0.22411700  0.51403891  0.03153878    -0.40000
N1845       N  0.21243573  0.54857398  0.65427068    -0.39800
N1846       N  0.13599848  0.55009912  0.65036331    -0.37400
N1847       N  0.14007149  0.61097477  0.91673189    -0.38400
N1848       N  0.21654607  0.61236856  0.92225846    -0.40100
C1849       C  0.83077438  0.56834836  0.72745583    -0.05000
C1850       C  0.81590089  0.58099589  0.76471309     0.09100
C1851       C  0.82831843  0.59295553  0.80607074    -0.02400
C1852       C  0.85521909  0.59232595  0.80992899    -0.00700
C1853       C  0.86996353  0.57915649  0.77326743    -0.04300
C1854       C  0.85757487  0.56700363  0.73221924     0.02700
C1855       C  0.78721063  0.58148433  0.76031339     0.09600
C1856       C  0.81339586  0.60592595  0.84473737     0.35500
C1857       C  0.87248438  0.55370391  0.69391545     0.38900
C1858       C  0.77297726  0.55856279  0.76459384    -0.04700
C1859       C  0.74624788  0.55874824  0.75797277     0.02500
C1860       C  0.73329181  0.58196938  0.74940091    -0.04300
C1861       C  0.74730814  0.60496240  0.74622863    -0.00500
C1862       C  0.77418104  0.60467901  0.75067989    -0.03100
C1863       C  0.78581154  0.53472306  0.77621656     0.36200
C1864       C  0.73405190  0.62904611  0.73951742     0.39800
C1865       C  0.73204720  0.53493237  0.75945041     0.38900
C1866       C  0.78843209  0.62828781  0.74495079     0.35900
C1867       C  0.81847193  0.55704136  0.68360900     0.36600
C1868       C  0.86774734  0.60481918  0.85225057     0.39800
N1869       N  0.72078855  0.51590022  0.76045761    -0.38300
N1870       N  0.79604824  0.51568750  0.78539853    -0.39900
N1871       N  0.72367584  0.64840760  0.73461980    -0.37600
N1872       N  0.79980202  0.64713201  0.74056257    -0.40000
N1873       N  0.80136385  0.61641387  0.87521481    -0.39800
N1874       N  0.87790839  0.61482082  0.88577030    -0.37400
N1875       N  0.88442451  0.54302700  0.66354393    -0.38400
N1876       N  0.80848564  0.54795576  0.64889748    -0.40100
C1877       C  0.82740940  0.55701158  0.52381056    -0.05000
C1878       C  0.81458911  0.57991711  0.51221110     0.09100
C1879       C  0.82869774  0.60253494  0.00634947    -0.02400
C1880       C  0.85552758  0.60247801  0.01194770    -0.00700
C1881       C  0.86894573  0.57939784  0.52286445    -0.04300
C1882       C  0.85426566  0.55662063  0.52917938     0.02700
C1883       C  0.78597189  0.58029059  0.50761191     0.09600
C1884       C  0.81547138  0.62615715  0.99434497     0.35500
C1885       C  0.86627396  0.53251944  0.54213928     0.38900
C1886       C  0.77091544  0.59063356  0.54697475    -0.04700
C1887       C  0.74402468  0.59085785  0.54322265     0.02500
C1888       C  0.73162340  0.58094663  0.49947135    -0.04300
C1889       C  0.74701957  0.57079207  0.95969461    -0.00500
C1890       C  0.77390981  0.57018897  0.96417373    -0.03100
C1891       C  0.78325644  0.60117884  0.59157776     0.36200
C1892       C  0.73555719  0.56060296  0.91400329     0.39800
C1893       C  0.72947566  0.60202231  0.58445101     0.38900
C1894       C  0.78935064  0.55893525  0.92415966     0.35900
C1895       C  0.81272338  0.53372319  0.53076103     0.36600
C1896       C  0.86888126  0.62661306  0.00604623     0.39800
N1897       N  0.71823093  0.61089643  0.61791136    -0.38300
N1898       N  0.79322748  0.60976923  0.62680385    -0.39900
N1899       N  0.72666774  0.55265719  0.87710719    -0.37600
N1900       N  0.80179114  0.54975404  0.89269218    -0.40000
N1901       N  0.80492843  0.64499237  0.98490635    -0.39800
N1902       N  0.87928959  0.64599794  0.00138471    -0.37400
N1903       N  0.87559050  0.51315512  0.55244950    -0.38400
N1904       N  0.80092017  0.51522781  0.53630331    -0.40100
C1905       C  0.37165057  0.11454995  0.69705389    -0.05000
C1906       C  0.38373484  0.12819672  0.73643681     0.09100
C1907       C  0.39569467  0.11469367  0.77604500    -0.02400
C1908       C  0.39527421  0.08770821  0.77667766    -0.00700
C1909       C  0.38257443  0.07409431  0.73787228    -0.04300
C1910       C  0.37092792  0.08761316  0.69782496     0.02700
C1911       C  0.38322130  0.15685785  0.73670028     0.09600
C1912       C  0.40820237  0.12869182  0.81633917     0.35500
C1913       C  0.35869544  0.07380470  0.65672411     0.38900
C1914       C  0.36071492  0.16992637  0.75092069    -0.04700
C1915       C  0.36026391  0.19688643  0.75209950     0.02500
C1916       C  0.38190822  0.21096178  0.73665473    -0.04300
C1917       C  0.40386107  0.19790919  0.71934879    -0.00500
C1918       C  0.40488916  0.17095588  0.72140485    -0.03100
C1919       C  0.33793213  0.15558125  0.76388832     0.36200
C1920       C  0.42530724  0.21215621  0.69906376     0.39800
C1921       C  0.33718292  0.21014715  0.76752705     0.38900
C1922       C  0.42836532  0.15772743  0.70864206     0.35900
C1923       C  0.35984920  0.12839178  0.65586237     0.36600
C1924       C  0.40721325  0.07400814  0.81809117     0.39800
N1925       N  0.31866530  0.22058733  0.77963469    -0.38300
N1926       N  0.31971225  0.14409730  0.77375936    -0.39900
N1927       N  0.44232084  0.22343013  0.68219592    -0.37600
N1928       N  0.44718996  0.14716708  0.69908844    -0.40000
N1929       N  0.41825809  0.14009697  0.84812733    -0.39800
N1930       N  0.41671181  0.06307751  0.85114291    -0.37400
N1931       N  0.34900951  0.06280365  0.62385821    -0.38400
N1932       N  0.35040620  0.13972119  0.62336951    -0.40100
C1933       C  0.40419590  0.17273604  0.97229775    -0.05000
C1934       C  0.38243765  0.15865781  0.48785359     0.09100
C1935       C  0.36010719  0.17200137  0.50245956    -0.02400
C1936       C  0.35998225  0.19899967  0.50411733    -0.00700
C1937       C  0.38191131  0.21301586  0.98925464    -0.04300
C1938       C  0.40348979  0.19973622  0.97079561     0.02700
C1939       C  0.38282644  0.12986948  0.48773831     0.09600
C1940       C  0.33713318  0.15796416  0.51534182     0.35500
C1941       C  0.42482692  0.21379750  0.94956224     0.38900
C1942       C  0.39587646  0.11633106  0.52598445    -0.04700
C1943       C  0.39564816  0.08928039  0.52656731     0.02500
C1944       C  0.38220934  0.07550846  0.48888622    -0.04300
C1945       C  0.36952202  0.08919167  0.95013807    -0.00500
C1946       C  0.36990167  0.11619773  0.94961080    -0.03100
C1947       C  0.40946998  0.13038819  0.56481671     0.36200
C1948       C  0.35677210  0.07539688  0.90967444     0.39800
C1949       C  0.40864825  0.07570266  0.56682681     0.38900
C1950       C  0.35700324  0.12999066  0.90963664     0.35900
C1951       C  0.42745796  0.15937748  0.95858785     0.36600
C1952       C  0.33691323  0.21251794  0.51876435     0.39800
N1953       N  0.41900911  0.06494081  0.59905967    -0.38300
N1954       N  0.42041011  0.14191114  0.59526748    -0.39900
N1955       N  0.34672315  0.06439209  0.87725078    -0.37600
N1956       N  0.34664257  0.14128106  0.87819605    -0.40000
N1957       N  0.31870930  0.14681701  0.52524236    -0.39800
N1958       N  0.31841372  0.22324955  0.52994179    -0.37400
N1959       N  0.44172193  0.22495675  0.93193492    -0.38400
N1960       N  0.44616586  0.14877261  0.94834485    -0.40100
C1961       C  0.35684175  0.75538917  0.78412133    -0.05000
C1962       C  0.36970044  0.74014026  0.74779874     0.09100
C1963       C  0.38286210  0.75226753  0.70761946    -0.02400
C1964       C  0.38327310  0.77924192  0.70396733    -0.00700
C1965       C  0.37000236  0.79439952  0.73986998    -0.04300
C1966       C  0.35656620  0.78229330  0.77968642     0.02700
C1967       C  0.36895093  0.71134235  0.75150570     0.09600
C1968       C  0.39604834  0.73689535  0.67004619     0.35500
C1969       C  0.34303562  0.79753865  0.81718381     0.38900
C1970       C  0.34565699  0.69807212  0.74497858    -0.04700
C1971       C  0.34467177  0.67122251  0.75031511     0.02500
C1972       C  0.36717693  0.65708637  0.75877194    -0.04300
C1973       C  0.39049156  0.67023087  0.76532129    -0.00500
C1974       C  0.39130565  0.69724294  0.76257797    -0.03100
C1975       C  0.32259329  0.71204272  0.73257821     0.36200
C1976       C  0.41374920  0.65601485  0.77468481     0.39800
C1977       C  0.32018632  0.65838896  0.75031062     0.38900
C1978       C  0.41518287  0.71053447  0.77140954     0.35900
C1979       C  0.34413113  0.74333759  0.82662613     0.36600
C1980       C  0.39686735  0.79135584  0.66246914     0.39800
N1981       N  0.30037465  0.64868276  0.75177239    -0.38300
N1982       N  0.30417580  0.72319067  0.72288016    -0.39900
N1983       N  0.43248569  0.64496709  0.78217241    -0.37600
N1984       N  0.43423702  0.72114730  0.77837659    -0.40000
N1985       N  0.40676694  0.72435760  0.64075382    -0.39800
N1986       N  0.40770569  0.80101006  0.62934961    -0.37400
N1987       N  0.33220741  0.80967143  0.84705925    -0.38400
N1988       N  0.33389425  0.73354670  0.86025608    -0.40100
C1989       C  0.34575894  0.69993722  0.98598362    -0.05000
C1990       C  0.36797885  0.71277830  0.50115556     0.09100
C1991       C  0.38945771  0.69854540  0.51672658    -0.02400
C1992       C  0.38792138  0.67165547  0.52073856    -0.00700
C1993       C  0.36536881  0.65875897  0.50636858    -0.04300
C1994       C  0.34508498  0.67299779  0.98536038     0.02700
C1995       C  0.36915326  0.74137086  0.49833024     0.09600
C1996       C  0.41334864  0.71152153  0.52698579     0.35500
C1997       C  0.32405757  0.65997555  0.96066908     0.38900
C1998       C  0.35780663  0.75645675  0.53669522    -0.04700
C1999       C  0.35806163  0.78338014  0.53305515     0.02500
C2000       C  0.36992893  0.79540533  0.49120473    -0.04300
C2001       C  0.38159361  0.78035380  0.95302984    -0.00500
C2002       C  0.38110625  0.75343028  0.95654531    -0.03100
C2003       C  0.34597695  0.74418517  0.58005108     0.36200
C2004       C  0.39336934  0.79246177  0.90939501     0.39800
C2005       C  0.34675095  0.79870930  0.57320304     0.38900
C2006       C  0.39262878  0.73792129  0.91700609     0.35900
C2007       C  0.32337911  0.71437618  0.97120149     0.36600
C2008       C  0.41031280  0.65710115  0.53508273     0.39800
N2009       N  0.33777961  0.81090441  0.60532329    -0.38300
N2010       N  0.33653410  0.73431742  0.61455093    -0.39900
N2011       N  0.40273326  0.80209978  0.87453689    -0.37600
N2012       N  0.40181766  0.72534118  0.88576531    -0.40000
N2013       N  0.43249263  0.72186109  0.53456373    -0.39800
N2014       N  0.42836038  0.64553890  0.54554579    -0.37400
N2015       N  0.30748978  0.64968171  0.94006992    -0.38400
N2016       N  0.30538864  0.72588817  0.96013312    -0.40100
loop_ 
_geom_bond_atom_site_label_1 
_geom_bond_atom_site_label_2 
_geom_bond_distance 
_geom_bond_site_symmetry_2 
_ccdc_geom_bond_type 
O1        Ni1017   1.921       .  S
O1         C1019   1.281       .  A
O2           Ni9   1.918       .  S
O2         C1020   1.281       .  A
O3           Ni9   1.925       .  S
O3           C13   1.282       .  A
O4        Ni1017   1.927   1_554  S
O4           C14   1.283       .  A
O5        Ni1018   1.924   1_554  S
O5           C14   1.282       .  A
O6          Ni10   1.927       .  S
O6           C13   1.283       .  A
O7        Ni1018   1.922       .  S
O7           C12   1.282       .  A
O8          Ni10   1.925       .  S
O8           C11   1.283       .  A
Ni9        O1009   1.921       .  S
Ni9        O1012   1.926       .  S
Ni9         Ni10   2.389       .  S
Ni10       O1013   1.924       .  S
Ni10       O1015   1.922       .  S
C11        O1009   1.281       .  A
C11        C1047   1.475       .  S
C12        O1010   1.281       .  A
C12         C992   1.484       .  S
C13          C28   1.478       .  S
C14          C27   1.477       .  S
O15         Ni23   1.919       .  S
O15          C25   1.281       .  A
O16         Ni23   1.921       .  S
O16          C26   1.281       .  A
O17         Ni23   1.925       .  S
O17          C27   1.282       .  A
O18         Ni23   1.927       .  S
O18          C28   1.283       .  A
O19         Ni24   1.925       .  S
O19          C28   1.282       .  A
O20         Ni24   1.927       .  S
O20          C27   1.283       .  A
O21         Ni24   1.924       .  S
O21          C26   1.283       .  A
O22         Ni24   1.923       .  S
O22          C25   1.282       .  A
Ni23        Ni24   2.388       .  S
C25          C53   1.472       .  S
C26         C957   1.490       .  S
O29         Ni37   1.923       .  S
O29          C39   1.282       .  A
O30       Ni1045   1.923   1_545  S
O30        C1048   1.282       .  A
O31       Ni1045   1.925       .  S
O31          C41   1.282       .  A
O32         Ni37   1.927   1_554  S
O32          C42   1.283       .  A
O33         Ni38   1.925   1_554  S
O33          C42   1.282       .  A
O34       Ni1046   1.927       .  S
O34          C41   1.283       .  A
O35         Ni38   1.926   1_545  S
O35          C40   1.282       .  A
O36       Ni1046   1.924       .  S
O36        C1047   1.282       .  A
Ni37       O1038   1.923   1_565  S
Ni37       O1039   1.925       .  S
Ni37        Ni38   2.388       .  S
Ni38       O1042   1.927       .  S
Ni38       O1044   1.924       .  S
C39        O1044   1.282       .  A
C39        C1019   1.475       .  S
C40        O1038   1.282       .  A
C40         C936   1.491       .  S
C41          C56   1.478       .  S
C42          C55   1.478       .  S
O43         Ni51   1.922       .  S
O43          C53   1.282       .  A
O44         Ni51   1.917   1_545  S
O44          C54   1.281       .  A
O45         Ni51   1.925       .  S
O45          C55   1.282       .  A
O46         Ni51   1.927       .  S
O46          C56   1.283       .  A
O47         Ni52   1.925       .  S
O47          C56   1.282       .  A
O48         Ni52   1.927       .  S
O48          C55   1.283       .  A
O49         Ni52   1.917   1_545  S
O49          C54   1.281       .  A
O50         Ni52   1.920       .  S
O50          C53   1.282       .  A
Ni51        Ni52   2.389       .  S
C54         C901   1.481       .  S
O57       Ni1073   1.927       .  S
O57        C1075   1.283       .  A
O58         Ni65   1.927       .  S
O58        C1076   1.283       .  A
O59         Ni65   1.924       .  S
O59          C69   1.282       .  A
O60       Ni1073   1.927       .  S
O60          C70   1.283       .  A
O61       Ni1074   1.924       .  S
O61          C70   1.282       .  A
O62         Ni66   1.927       .  S
O62          C69   1.282       .  A
O63       Ni1074   1.921       .  S
O63          C68   1.282       .  A
O64         Ni66   1.921       .  S
O64          C67   1.282       .  A
Ni65       O1065   1.927       .  S
Ni65       O1068   1.927       .  S
Ni65        Ni66   2.383       .  S
Ni66       O1069   1.924       .  S
Ni66       O1071   1.920       .  S
C67        O1065   1.283       .  A
C67        C1103   1.475   1_655  S
C68        O1066   1.283       .  A
C68         C873   1.518       .  S
C69          C84   1.477       .  S
C70          C83   1.478       .  S
O71         Ni79   1.926       .  S
O71          C81   1.283       .  A
O72         Ni79   1.925       .  S
O72          C82   1.283       .  A
O73         Ni79   1.925       .  S
O73          C83   1.282       .  A
O74         Ni79   1.926       .  S
O74          C84   1.283       .  A
O75         Ni80   1.925       .  S
O75          C84   1.282       .  A
O76         Ni80   1.927       .  S
O76          C83   1.283       .  A
O77         Ni80   1.921       .  S
O77          C82   1.281       .  A
O78         Ni80   1.922       .  S
O78          C81   1.282       .  A
Ni79        Ni80   2.388       .  S
C81         C109   1.475   1_655  S
C82         C845   1.490       .  S
O85         Ni93   1.922       .  S
O85          C95   1.282       .  A
O86       Ni1101   1.921       .  S
O86        C1104   1.281       .  A
O87       Ni1101   1.925       .  S
O87          C97   1.282       .  A
O88         Ni93   1.927       .  S
O88          C98   1.283       .  A
O89         Ni94   1.924       .  S
O89          C98   1.282       .  A
O90       Ni1102   1.926       .  S
O90          C97   1.283       .  A
O91         Ni94   1.924       .  S
O91          C96   1.282       .  A
O92       Ni1102   1.926       .  S
O92        C1103   1.282       .  A
Ni93       O1094   1.921       .  S
Ni93       O1095   1.925   1_554  S
Ni93        Ni94   2.388       .  S
Ni94       O1098   1.926   1_554  S
Ni94       O1100   1.926       .  S
C95        O1100   1.282       .  A
C95        C1075   1.475   1_455  S
C96        O1094   1.281       .  A
C96         C817   1.488       .  S
C97         C112   1.478       .  S
C98         C111   1.477       .  S
O99        Ni107   1.923       .  S
O99         C109   1.282       .  A
O100       Ni107   1.923       .  S
O100        C110   1.282       .  A
O101       Ni107   1.924       .  S
O101        C111   1.282       .  A
O102       Ni107   1.926       .  S
O102        C112   1.282       .  A
O103       Ni108   1.925       .  S
O103        C112   1.282       .  A
O104       Ni108   1.927       .  S
O104        C111   1.283       .  A
O105       Ni108   1.924       .  S
O105        C110   1.283       .  A
O106       Ni108   1.925       .  S
O106        C109   1.282       .  A
Ni107      Ni108   2.383       .  S
C110        C796   1.518       .  S
O113      Ni1129   1.919   1_565  S
O113       C1131   1.281       .  A
O114       Ni121   1.919       .  S
O114       C1132   1.281       .  A
O115       Ni121   1.926       .  S
O115        C125   1.283   1_545  A
O116      Ni1129   1.925       .  S
O116        C126   1.282   1_545  A
O117      Ni1130   1.927       .  S
O117        C126   1.283       .  A
O118       Ni122   1.925       .  S
O118        C125   1.282       .  A
O119      Ni1130   1.919   1_545  S
O119        C124   1.281       .  A
O120       Ni122   1.918       .  S
O120        C123   1.281       .  A
Ni121      O1121   1.919   1_545  S
Ni121      O1124   1.925       .  S
Ni121      Ni122   2.389   1_545  S
Ni122      O1125   1.927       .  S
Ni122      O1127   1.919   1_565  S
C123       O1121   1.281       .  A
C123       C1159   1.469       .  S
C124       O1122   1.281       .  A
C124        C761   1.485       .  S
C125        C140   1.478       .  S
C126        C139   1.477       .  S
O127       Ni135   1.914   1_565  S
O127        C137   1.280       .  A
O128       Ni135   1.912       .  S
O128        C138   1.280       .  A
O129       Ni135   1.927       .  S
O129        C139   1.283   1_545  A
O130       Ni135   1.925       .  S
O130        C140   1.282   1_545  A
O131       Ni136   1.927       .  S
O131        C140   1.283       .  A
O132       Ni136   1.924       .  S
O132        C139   1.282       .  A
O133       Ni136   1.915   1_545  S
O133        C138   1.281       .  A
O134       Ni136   1.916       .  S
O134        C137   1.281       .  A
Ni135      Ni136   2.384   1_545  S
C137        C165   1.465       .  S
C138        C733   1.508       .  S
O141       Ni149   1.918       .  S
O141        C151   1.281       .  A
O142      Ni1157   1.917       .  S
O142       C1160   1.282       .  A
O143      Ni1157   1.923       .  S
O143        C153   1.282       .  A
O144       Ni149   1.927       .  S
O144        C154   1.283       .  A
O145       Ni150   1.924       .  S
O145        C154   1.282       .  A
O146      Ni1158   1.927       .  S
O146        C153   1.283       .  A
O147       Ni150   1.919       .  S
O147        C152   1.281       .  A
O148      Ni1158   1.919       .  S
O148       C1159   1.281       .  A
Ni149      O1150   1.918       .  S
Ni149      O1151   1.923   1_554  S
Ni149      Ni150   2.384       .  S
Ni150      O1154   1.927   1_554  S
Ni150      O1156   1.919       .  S
C151       O1156   1.281       .  A
C151       C1131   1.469       .  S
C152       O1150   1.282       .  A
C152        C705   1.510       .  S
C153        C168   1.477       .  S
C154        C167   1.478       .  S
O155       Ni163   1.914       .  S
O155        C165   1.280       .  A
O156       Ni163   1.913       .  S
O156        C166   1.281       .  A
O157       Ni163   1.924       .  S
O157        C167   1.282       .  A
O158       Ni163   1.928       .  S
O158        C168   1.283       .  A
O159       Ni164   1.923       .  S
O159        C168   1.282       .  A
O160       Ni164   1.927       .  S
O160        C167   1.283       .  A
O161       Ni164   1.917       .  S
O161        C166   1.281       .  A
O162       Ni164   1.917       .  S
O162        C165   1.281       .  A
Ni163      Ni164   2.385       .  S
C166        C684   1.506       .  S
O169       Ni177   1.924       .  S
O169       C1187   1.283   1_554  A
O170       Ni177   1.930       .  S
O170       C1188   1.284       .  A
O171       Ni177   1.915       .  S
O171        C181   1.281   1_554  A
O172       Ni177   1.917       .  S
O172        C182   1.280       .  A
O173       Ni178   1.921       .  S
O173       C1190   1.282       .  A
O174       Ni178   1.917       .  S
O174       C1189   1.282       .  A
O175       Ni178   1.911       .  S
O175        C180   1.280       .  A
O176       Ni178   1.919       .  S
O176        C179   1.280       .  A
Ni177     Ni1186   2.384   1_554  S
Ni178     Ni1185   2.384       .  S
C179       O1177   1.283       .  A
C179        C929   1.485       .  S
C180       O1178   1.284       .  A
C180        C656   1.512       .  S
C181       O1182   1.282       .  A
C181        C600   1.496       .  S
C182       O1181   1.282   1_554  A
C182        C621   1.481       .  S
O183       Ni191   1.914       .  S
O183        C193   1.282       .  A
O184       Ni191   1.915       .  S
O184        C194   1.280       .  A
O185       Ni191   1.922       .  S
O185        C195   1.281       .  A
O186       Ni191   1.920       .  S
O186        C196   1.281       .  A
O187       Ni192   1.926       .  S
O187        C196   1.282       .  A
O188       Ni192   1.918       .  S
O188        C195   1.281       .  A
O189       Ni192   1.919       .  S
O189        C194   1.282       .  A
O190       Ni192   1.918       .  S
O190        C193   1.282       .  A
Ni191      Ni192   2.389       .  S
C193        C509   1.493       .  S
C194        C537   1.482       .  S
C195        C908   1.481       .  S
C196        C572   1.485       .  S
O197       Ni205   1.907       .  S
O197       C1215   1.277       .  A
O198       Ni205   1.912       .  S
O198       C1216   1.277       .  A
O199       Ni205   1.936       .  S
O199        C209   1.285       .  A
O200       Ni205   1.939       .  S
O200        C210   1.287       .  A
O201       Ni206   1.909       .  S
O201       C1218   1.279       .  A
O202       Ni206   1.924       .  S
O202       C1217   1.279       .  A
O203       Ni206   1.939       .  S
O203        C208   1.287       .  A
O204       Ni206   1.931       .  S
O204        C207   1.285       .  A
Ni205     Ni1214   2.385       .  S
Ni206     Ni1213   2.385   1_554  S
C207       O1205   1.277   1_554  A
C207        C985   1.484       .  S
C208       O1206   1.277   1_554  A
C208        C649   1.490       .  S
C209       O1210   1.279       .  A
C209        C824   1.491       .  S
C210       O1209   1.279       .  A
C210        C488   1.512       .  S
O211       Ni219   1.923       .  S
O211        C221   1.282       .  A
O212       Ni219   1.916       .  S
O212        C222   1.281       .  A
O213       Ni219   1.927       .  S
O213        C223   1.282       .  A
O214       Ni219   1.930       .  S
O214        C224   1.284       .  A
O215       Ni220   1.923       .  S
O215        C224   1.282       .  A
O216       Ni220   1.926       .  S
O216        C223   1.282       .  A
O217       Ni220   1.922       .  S
O217        C222   1.283       .  A
O218       Ni220   1.921       .  S
O218        C221   1.283       .  A
Ni219      Ni220   2.382       .  S
C221        C789   1.510       .  S
C222        C453   1.496       .  S
C223        C964   1.488       .  S
C224        C565   1.501       .  S
O225       Ni233   1.923       .  S
O225       C1243   1.281       .  A
O226       Ni233   1.919       .  S
O226       C1244   1.280       .  A
O227       Ni233   1.927       .  S
O227        C237   1.284       .  A
O228       Ni233   1.923       .  S
O228        C238   1.282       .  A
O229       Ni234   1.912       .  S
O229       C1246   1.281   1_554  A
O230       Ni234   1.914       .  S
O230       C1245   1.280   1_554  A
O231       Ni234   1.923       .  S
O231        C236   1.281   1_554  A
O232       Ni234   1.915       .  S
O232        C235   1.279   1_554  A
Ni233     Ni1242   2.385       .  S
Ni234     Ni1241   2.385   1_554  S
C235       O1233   1.281       .  A
C235        C768   1.480       .  S
C236       O1234   1.280       .  A
C236        C432   1.481       .  S
C237       O1238   1.280       .  A
C237        C397   1.501       .  S
C238       O1237   1.281       .  A
C238        C628   1.503       .  S
O239       Ni247   1.918       .  S
O239        C249   1.281       .  A
O240       Ni247   1.920       .  S
O240        C250   1.282       .  A
O241       Ni247   1.915       .  S
O241        C251   1.281       .  A
O242       Ni247   1.921       .  S
O242        C252   1.281       .  A
O243       Ni248   1.912       .  S
O243        C252   1.279       .  A
O244       Ni248   1.918       .  S
O244        C251   1.281       .  A
O245       Ni248   1.915       .  S
O245        C250   1.281       .  A
O246       Ni248   1.924       .  S
O246        C249   1.283       .  A
Ni247      Ni248   2.382       .  S
C249        C341   1.506       .  S
C250        C544   1.496       .  S
C251        C740   1.502       .  S
C252        C376   1.476       .  S
O253       Ni261   1.912       .  S
O253       C1271   1.280   1_554  A
O254       Ni261   1.911       .  S
O254       C1272   1.280   1_554  A
O255       Ni261   1.925       .  S
O255        C265   1.283   1_554  A
O256       Ni261   1.931       .  S
O256        C266   1.283   1_554  A
O257       Ni262   1.920       .  S
O257       C1274   1.280       .  A
O258       Ni262   1.926       .  S
O258       C1273   1.283       .  A
O259       Ni262   1.925       .  S
O259        C264   1.283       .  A
O260       Ni262   1.920       .  S
O260        C263   1.283       .  A
Ni261     Ni1270   2.381   1_554  S
Ni262     Ni1269   2.381       .  S
C263       O1261   1.280       .  A
C263        C712   1.497       .  S
C264       O1262   1.280       .  A
C264        C425   1.504       .  S
C265       O1266   1.283       .  A
C265        C880   1.510       .  S
C266       O1265   1.280       .  A
C266        C481   1.486       .  S
O267       Ni275   1.928       .  S
O267        C277   1.282       .  A
O268       Ni275   1.920       .  S
O268        C278   1.280       .  A
O269       Ni275   1.920       .  S
O269        C279   1.282       .  A
O270       Ni275   1.919       .  S
O270        C280   1.282       .  A
O271       Ni276   1.911       .  S
O271        C280   1.281       .  A
O272       Ni276   1.912       .  S
O272        C279   1.281       .  A
O273       Ni276   1.922       .  S
O273        C278   1.281       .  A
O274       Ni276   1.918       .  S
O274        C277   1.280       .  A
Ni275      Ni276   2.385       .  S
C277        C852   1.484       .  S
C278        C460   1.482       .  S
C279        C677   1.502       .  S
C280        C369   1.497       .  S
O281      Ni1297   1.920       .  S
O281       C1299   1.281       .  A
O282       Ni289   1.918       .  S
O282        C292   1.282       .  A
O283       Ni289   1.928       .  S
O283        C293   1.283       .  A
O284      Ni1297   1.924   1_554  S
O284        C294   1.282       .  A
O285      Ni1298   1.927   1_554  S
O285        C294   1.283       .  A
O286       Ni290   1.923       .  S
O286        C293   1.281       .  A
O287      Ni1298   1.919       .  S
O287       C1300   1.282       .  A
O288       Ni290   1.920       .  S
O288        C291   1.282       .  A
Ni289      O1289   1.920       .  S
Ni289      O1292   1.924       .  S
Ni289      Ni290   2.384       .  S
Ni290      O1293   1.926       .  S
Ni290      O1295   1.919       .  S
C291       O1289   1.281       .  A
C291       C1327   1.471       .  S
C292       O1295   1.282       .  A
C292       C1601   1.509       .  S
C293        C308   1.478       .  S
C294        C307   1.477       .  S
O295       Ni303   1.923       .  S
O295        C305   1.282       .  A
O296       Ni303   1.921       .  S
O296        C306   1.283       .  A
O297       Ni303   1.927       .  S
O297        C307   1.283       .  A
O298       Ni303   1.923       .  S
O298        C308   1.282       .  A
O299       Ni304   1.928       .  S
O299        C308   1.283       .  A
O300       Ni304   1.925       .  S
O300        C307   1.282       .  A
O301       Ni304   1.918       .  S
O301        C306   1.281       .  A
O302       Ni304   1.918       .  S
O302        C305   1.281       .  A
Ni303      Ni304   2.384       .  S
C305        C333   1.471       .  S
C306        C516   1.509       .  S
O309       Ni317   1.916       .  S
O309        C319   1.280   1_655  A
O310      Ni1325   1.916       .  S
O310       C1328   1.281       .  A
O311      Ni1325   1.924       .  S
O311        C321   1.282       .  A
O312       Ni317   1.928   1_554  S
O312        C322   1.283       .  A
O313       Ni318   1.923   1_554  S
O313        C322   1.282       .  A
O314      Ni1326   1.927       .  S
O314        C321   1.283       .  A
O315       Ni318   1.926       .  S
O315        C320   1.283       .  A
O316      Ni1326   1.925   1_455  S
O316       C1327   1.283       .  A
Ni317      O1318   1.915       .  S
Ni317      O1319   1.924       .  S
Ni317      Ni318   2.385       .  S
Ni318      O1322   1.927       .  S
Ni318      O1324   1.925   1_655  S
C319       O1324   1.283       .  A
C319       C1299   1.471       .  S
C320       O1318   1.281       .  A
C320        C404   1.509       .  S
C321        C336   1.477       .  S
C322        C335   1.478       .  S
O323       Ni331   1.917       .  S
O323        C333   1.281   1_655  A
O324       Ni331   1.917       .  S
O324        C334   1.282       .  A
O325       Ni331   1.923       .  S
O325        C335   1.282       .  A
O326       Ni331   1.927       .  S
O326        C336   1.283       .  A
O327       Ni332   1.924       .  S
O327        C336   1.282       .  A
O328       Ni332   1.928       .  S
O328        C335   1.283       .  A
O329       Ni332   1.925       .  S
O329        C334   1.283       .  A
O330       Ni332   1.924   1_455  S
O330        C333   1.282       .  A
Ni331      Ni332   2.385       .  S
C334        C348   1.508       .  S
C337        C338   1.406       .  A
C337        C342   1.413       .  A
C337        C355   1.448       .  S
C338        C343   1.502       .  S
C338        C339   1.406       .  A
C339        C340   1.412       .  A
C339        C344   1.448       .  S
C340        C341   1.424       .  A
C340        C356   1.450       .  S
C341        C342   1.425       .  A
C342        C345   1.452       .  S
C343        C346   1.408       .  A
C343        C350   1.409       .  A
C344        N361   1.156       .  T
C345        N363   1.158       .  T
C346        C347   1.411       .  A
C346        C351   1.451       .  S
C347        C348   1.424       .  A
C347        C353   1.451       .  S
C348        C349   1.424       .  A
C349        C350   1.414       .  A
C349        C352   1.451       .  S
C350        C354   1.451       .  S
C351        N358   1.157       .  T
C352        N359   1.157       .  T
C353        N357   1.158       .  T
C354        N360   1.157       .  T
C355        N364   1.155       .  T
C356        N362   1.157       .  T
C365        C366   1.409       .  A
C365        C370   1.409       .  A
C365        C383   1.452       .  S
C366        C371   1.497       .  S
C366        C367   1.410       .  A
C367        C368   1.411       .  A
C367        C372   1.451       .  S
C368        C369   1.421       .  A
C368        C384   1.452       .  S
C369        C370   1.422       .  A
C370        C373   1.453       .  S
C371        C374   1.412       .  A
C371        C378   1.413       .  A
C372        N389   1.157       .  T
C373        N391   1.158       .  T
C374        C375   1.409       .  A
C374        C379   1.451       .  S
C375        C376   1.412       .  A
C375        C381   1.450       .  S
C376        C377   1.409       .  A
C377        C378   1.409       .  A
C377        C380   1.449       .  S
C378        C382   1.451       .  S
C379        N386   1.157       .  T
C380        N387   1.157       .  T
C381        N385   1.157       .  T
C382        N388   1.157       .  T
C383        N392   1.157       .  T
C384        N390   1.158       .  T
C393        C394   1.411       .  A
C393        C398   1.413       .  A
C393        C411   1.449       .  S
C394       C1407   1.506       .  S
C394       C1403   1.410       .  A
C395        C396   1.413       .  A
C395       C1402   1.410   1_554  A
C395        C400   1.450       .  S
C396       C1405   1.422   1_554  A
C396        C412   1.452       .  S
C397        C398   1.420       .  A
C397       C1404   1.422       .  A
C398        C401   1.452       .  S
C399       C1402   1.506       .  S
C399        C406   1.410   1_556  A
C399       C1410   1.411       .  A
C400        N417   1.156       .  T
C401        N419   1.158       .  T
C402        C403   1.415       .  A
C402       C1407   1.411       .  A
C402        C407   1.451       .  S
C403       C1412   1.423       .  A
C403        C409   1.451       .  S
C404        C405   1.424   1_556  A
C404       C1411   1.423       .  A
C405        C406   1.412       .  A
C405        C408   1.452       .  S
C406        C410   1.452       .  S
C407        N414   1.158       .  T
C408        N415   1.158       .  T
C409        N413   1.157       .  T
C410        N416   1.157       .  T
C411        N420   1.156       .  T
C412        N418   1.158       .  T
C421        C422   1.409   1_554  A
C421        C426   1.412       .  A
C421        C439   1.451       .  S
C422        C427   1.501       .  S
C422       C1431   1.409       .  A
C423        C424   1.411       .  A
C423       C1430   1.409       .  A
C423        C428   1.451       .  S
C424        C425   1.422       .  A
C424        C440   1.449       .  S
C425       C1434   1.424       .  A
C426       C1433   1.424   1_554  A
C426        C429   1.452       .  S
C427        C434   1.414       .  A
C427       C1438   1.412       .  A
C428        N445   1.156       .  T
C429        N447   1.157       .  T
C430        C431   1.411       .  A
C430       C1435   1.412       .  A
C430        C435   1.451       .  S
C431       C1440   1.413       .  A
C431        C437   1.450       .  S
C432        C433   1.410       .  A
C432       C1439   1.413       .  A
C433        C434   1.411       .  A
C433        C436   1.449       .  S
C434        C438   1.451   1_556  S
C435        N442   1.157       .  T
C436        N443   1.156       .  T
C437        N441   1.157       .  T
C438        N444   1.157       .  T
C439        N448   1.157       .  T
C440        N446   1.157       .  T
C449        C450   1.415       .  A
C449        C454   1.412       .  A
C449        C467   1.452       .  S
C450        C455   1.507       .  S
C450        C451   1.415       .  A
C451        C452   1.412       .  A
C451        C456   1.452       .  S
C452        C453   1.417       .  A
C452        C468   1.452       .  S
C453        C454   1.417       .  A
C454        C457   1.451       .  S
C455        C458   1.416       .  A
C455        C462   1.417       .  A
C456        N473   1.157       .  T
C457        N475   1.157       .  T
C458        C459   1.411       .  A
C458        C463   1.451       .  S
C459        C460   1.409       .  A
C459        C465   1.450       .  S
C460        C461   1.411       .  A
C461        C462   1.413       .  A
C461        C464   1.451       .  S
C462        C466   1.451       .  S
C463        N470   1.157       .  T
C464        N471   1.157       .  T
C465        N469   1.157       .  T
C466        N472   1.157       .  T
C467        N476   1.158       .  T
C468        N474   1.157       .  T
C477        C478   1.414       .  A
C477        C482   1.414       .  A
C477        C495   1.450       .  S
C478        C483   1.507       .  S
C478       C1487   1.415       .  A
C479        C480   1.413       .  A
C479       C1486   1.415       .  A
C479        C484   1.450       .  S
C480       C1489   1.411       .  A
C480        C496   1.450       .  S
C481        C482   1.412       .  A
C481       C1488   1.411       .  A
C482        C485   1.450       .  S
C483        C490   1.408   1_556  A
C483       C1494   1.411       .  A
C484        N501   1.157       .  T
C485        N503   1.157       .  T
C486        C487   1.417       .  A
C486       C1491   1.411       .  A
C486        C491   1.448       .  S
C487        C488   1.422       .  A
C487        C493   1.449       .  S
C488       C1497   1.426       .  A
C489        C490   1.411       .  A
C489       C1496   1.426   1_554  A
C489        C492   1.450       .  S
C490        C494   1.452       .  S
C491        N498   1.156       .  T
C492        N499   1.157       .  T
C493        N497   1.157       .  T
C494        N500   1.157       .  T
C495        N504   1.157       .  T
C496        N502   1.157       .  T
C505        C506   1.410       .  A
C505        C510   1.410       .  A
C505        C523   1.451       .  S
C506        C511   1.500       .  S
C506        C507   1.411       .  A
C507        C508   1.411       .  A
C507        C512   1.449       .  S
C508        C509   1.418       .  A
C508        C524   1.452       .  S
C509        C510   1.418       .  A
C510        C513   1.451       .  S
C511        C514   1.409       .  A
C511        C518   1.409       .  A
C512        N529   1.156       .  T
C513        N531   1.157       .  T
C514        C515   1.413       .  A
C514        C519   1.452       .  S
C515        C516   1.426       .  A
C515        C521   1.451       .  S
C516        C517   1.424       .  A
C517        C518   1.412       .  A
C517        C520   1.451       .  S
C518        C522   1.452       .  S
C519        N526   1.157       .  T
C520        N527   1.157       .  T
C521        N525   1.158       .  T
C522        N528   1.157       .  T
C523        N532   1.157       .  T
C524        N530   1.157       .  T
C533        C534   1.412       .  A
C533        C538   1.409       .  A
C533        C551   1.450       .  S
C534        C539   1.499       .  S
C534        C535   1.413       .  A
C535        C536   1.410       .  A
C535        C540   1.450       .  S
C536        C537   1.413       .  A
C536        C552   1.451       .  S
C537        C538   1.412       .  A
C538        C541   1.451       .  S
C539        C542   1.410       .  A
C539        C546   1.410       .  A
C540        N557   1.157       .  T
C541        N559   1.158       .  T
C542        C543   1.411       .  A
C542        C547   1.451       .  S
C543        C544   1.420       .  A
C543        C549   1.451       .  S
C544        C545   1.419       .  A
C545        C546   1.411       .  A
C545        C548   1.452       .  S
C546        C550   1.450       .  S
C547        N554   1.157       .  T
C548        N555   1.158       .  T
C549        N553   1.157       .  T
C550        N556   1.156       .  T
C551        N560   1.157       .  T
C552        N558   1.157       .  T
C561        C562   1.412       .  A
C561        C566   1.413       .  A
C561        C579   1.451       .  S
C562        C567   1.508       .  S
C562        C563   1.414       .  A
C563        C564   1.414       .  A
C563        C568   1.451       .  S
C564        C565   1.418       .  A
C564        C580   1.449       .  S
C565        C566   1.415       .  A
C566        C569   1.445       .  S
C567        C570   1.416       .  A
C567        C574   1.416       .  A
C568        N585   1.157       .  T
C569        N587   1.155       .  T
C570        C571   1.412       .  A
C570        C575   1.451       .  S
C571        C572   1.412       .  A
C571        C577   1.451       .  S
C572        C573   1.411       .  A
C573        C574   1.413       .  A
C573        C576   1.450       .  S
C574        C578   1.451       .  S
C575        N582   1.157       .  T
C576        N583   1.157       .  T
C577        N581   1.157       .  T
C578        N584   1.157       .  T
C579        N588   1.157       .  T
C580        N586   1.156       .  T
C589        C590   1.407       .  A
C589        C594   1.413       .  A
C589        C607   1.452   1_556  S
C590        C595   1.498       .  S
C590       C1599   1.408       .  A
C591        C592   1.411       .  A
C591       C1598   1.408       .  A
C591        C596   1.453       .  S
C592       C1601   1.425       .  A
C592        C608   1.452       .  S
C593       C1300   1.509       .  S
C593        C594   1.426       .  A
C593       C1600   1.425       .  A
C594        C597   1.451   1_556  S
C595        C602   1.408   1_556  A
C595       C1606   1.409       .  A
C596        N613   1.157       .  T
C597        N615   1.158       .  T
C598        C599   1.411       .  A
C598       C1603   1.409       .  A
C598        C603   1.450       .  S
C599       C1608   1.420       .  A
C599        C605   1.451       .  S
C600        C601   1.421   1_556  A
C600       C1607   1.420       .  A
C601        C602   1.410       .  A
C601        C604   1.450       .  S
C602        C606   1.450       .  S
C603        N610   1.157       .  T
C604        N611   1.157       .  T
C605        N609   1.157       .  T
C606        N612   1.156       .  T
C607        N616   1.157       .  T
C608        N614   1.157       .  T
C617        C622   1.410       .  A
C617       C1626   1.412       .  A
C617        C635   1.451       .  S
C618        C623   1.498   1_554  S
C618        C619   1.411       .  A
C618       C1625   1.412   1_554  A
C619        C620   1.410       .  A
C619        C624   1.450       .  S
C620        C621   1.412       .  A
C620        C636   1.450       .  S
C621       C1630   1.412   1_554  A
C622       C1629   1.411       .  A
C622        C625   1.449       .  S
C623        C626   1.404   1_556  A
C623       C1638   1.405       .  A
C624        N641   1.157       .  T
C625        N643   1.157       .  T
C626        C627   1.409       .  A
C626        C631   1.446       .  S
C627       C1636   1.424   1_554  A
C627        C633   1.452       .  S
C628        C629   1.423       .  A
C628       C1635   1.424       .  A
C629        C630   1.412       .  A
C629        C632   1.449       .  S
C630       C1631   1.405       .  A
C630        C634   1.447       .  S
C631        N638   1.154       .  T
C632        N639   1.157       .  T
C633        N637   1.157       .  T
C634        N640   1.155       .  T
C635        N644   1.157       .  T
C636        N642   1.157       .  T
C645        C646   1.408       .  A
C645        C650   1.410       .  A
C645        C663   1.451       .  S
C646       C1659   1.498       .  S
C646       C1655   1.409       .  A
C647        C648   1.412       .  A
C647       C1654   1.409       .  A
C647        C652   1.451       .  S
C648       C1657   1.416       .  A
C648        C664   1.448       .  S
C649        C650   1.413       .  A
C649       C1656   1.416   1_554  A
C650        C653   1.445       .  S
C651       C1654   1.498       .  S
C651        C658   1.405       .  A
C651       C1662   1.405       .  A
C652        N669   1.157       .  T
C653        N671   1.155       .  T
C654        C655   1.413       .  A
C654       C1659   1.405       .  A
C654        C659   1.449       .  S
C655       C1664   1.423       .  A
C655        C661   1.445       .  S
C656        C657   1.425       .  A
C656       C1663   1.423       .  A
C657        C658   1.411       .  A
C657        C660   1.446       .  S
C658        C662   1.451       .  S
C659        N666   1.156       .  T
C660        N667   1.155       .  T
C661        N665   1.155       .  T
C662        N668   1.157       .  T
C663        N672   1.157       .  T
C664        N670   1.157       .  T
C673        C674   1.406       .  A
C673        C678   1.410       .  A
C673        C691   1.450       .  S
C674        C679   1.495       .  S
C674        C675   1.405       .  A
C675        C676   1.409       .  A
C675        C680   1.450       .  S
C676        C677   1.424       .  A
C676        C692   1.449       .  S
C677        C678   1.426       .  A
C678        C681   1.453       .  S
C679        C682   1.407       .  A
C679        C686   1.407       .  A
C680        N697   1.156       .  T
C681        N699   1.158       .  T
C682        C683   1.410       .  A
C682        C687   1.453       .  S
C683        C684   1.426       .  A
C683        C689   1.452       .  S
C684        C685   1.426       .  A
C685        C686   1.411       .  A
C685        C688   1.451       .  S
C686        C690   1.452       .  S
C687        N694   1.157       .  T
C688        N695   1.158       .  T
C689        N693   1.158       .  T
C690        N696   1.157       .  T
C691        N700   1.157       .  T
C692        N698   1.157       .  T
C701        C702   1.409       .  A
C701        C706   1.412       .  A
C701        C719   1.453       .  S
C702       C1715   1.502       .  S
C702       C1711   1.409   1_554  A
C703        C704   1.413       .  A
C703       C1710   1.409       .  A
C703        C708   1.453       .  S
C704       C1713   1.427       .  A
C704        C720   1.452       .  S
C705        C706   1.426       .  A
C705       C1712   1.426   1_554  A
C706        C709   1.452       .  S
C707       C1710   1.502       .  S
C707        C714   1.411       .  A
C707       C1718   1.410       .  A
C708        N725   1.157       .  T
C709        N727   1.157       .  T
C710        C711   1.411       .  A
C710       C1715   1.410       .  A
C710        C715   1.451       .  S
C711       C1720   1.422   1_554  A
C711        C717   1.453       .  S
C712        C713   1.419       .  A
C712       C1719   1.422       .  A
C713        C714   1.410       .  A
C713        C716   1.452       .  S
C714        C718   1.450       .  S
C715        N722   1.157       .  T
C716        N723   1.158       .  T
C717        N721   1.158       .  T
C718        N724   1.156       .  T
C719        N728   1.158       .  T
C720        N726   1.158       .  T
C729        C730   1.406       .  A
C729        C734   1.409       .  A
C729        C747   1.453       .  S
C730        C735   1.494       .  S
C730        C731   1.406       .  A
C731        C732   1.411       .  A
C731        C736   1.452       .  S
C732        C733   1.427       .  A
C732        C748   1.452       .  S
C733        C734   1.428       .  A
C734        C737   1.452       .  S
C735        C738   1.406       .  A
C735        C742   1.406       .  A
C736        N753   1.157       .  T
C737        N755   1.158       .  T
C738        C739   1.409       .  A
C738        C743   1.451       .  S
C739        C740   1.423       .  A
C739        C745   1.449       .  S
C740        C741   1.423       .  A
C741        C742   1.411       .  A
C741        C744   1.449       .  S
C742        C746   1.451       .  S
C743        N750   1.157       .  T
C744        N751   1.156       .  T
C745        N749   1.156       .  T
C746        N752   1.157       .  T
C747        N756   1.157       .  T
C748        N754   1.158       .  T
C757        C758   1.415       .  A
C757        C762   1.411       .  A
C757        C775   1.451       .  S
C758        C763   1.503   1_554  S
C758       C1767   1.414   1_554  A
C759        C760   1.411       .  A
C759       C1766   1.414       .  A
C759        C764   1.450       .  S
C760       C1769   1.413       .  A
C760        C776   1.451       .  S
C761        C762   1.412       .  A
C761       C1768   1.413   1_554  A
C762        C765   1.450       .  S
C763        C770   1.414       .  A
C763       C1774   1.415   1_556  A
C764        N781   1.157       .  T
C765        N783   1.157       .  T
C766        C767   1.412       .  A
C766       C1771   1.415       .  A
C766        C771   1.450       .  S
C767       C1776   1.410       .  A
C767        C773   1.451       .  S
C768        C769   1.411       .  A
C768       C1775   1.410   1_556  A
C769        C770   1.410       .  A
C769        C772   1.449       .  S
C770        C774   1.452       .  S
C771        N778   1.157       .  T
C772        N779   1.156       .  T
C773        N777   1.157       .  T
C774        N780   1.157       .  T
C775        N784   1.157       .  T
C776        N782   1.157       .  T
C785        C786   1.411       .  A
C785        C790   1.412       .  A
C785        C803   1.451       .  S
C786        C791   1.505       .  S
C786        C787   1.409       .  A
C787        C788   1.414       .  A
C787        C792   1.452       .  S
C788        C789   1.423       .  A
C788        C804   1.447       .  S
C789        C790   1.422       .  A
C790        C793   1.448       .  S
C791        C794   1.408       .  A
C791        C798   1.408       .  A
C792        N809   1.157       .  T
C793        N811   1.156       .  T
C794        C795   1.415       .  A
C794        C799   1.453       .  S
C795        C796   1.428       .  A
C795        C801   1.451       .  S
C796        C797   1.429       .  A
C797        C798   1.414       .  A
C797        C800   1.451       .  S
C798        C802   1.453       .  S
C799        N806   1.157       .  T
C800        N807   1.158       .  T
C801        N805   1.158       .  T
C802        N808   1.157       .  T
C803        N812   1.157       .  T
C804        N810   1.156       .  T
C813        C818   1.414       .  A
C813       C1822   1.417       .  A
C813        C831   1.450       .  S
C814        C819   1.511       .  S
C814        C815   1.418       .  A
C814       C1821   1.417   1_554  A
C815        C816   1.413       .  A
C815        C820   1.449       .  S
C816        C817   1.411       .  A
C816        C832   1.451       .  S
C817       C1826   1.412   1_554  A
C818       C1825   1.412       .  A
C818        C821   1.450       .  S
C819        C822   1.417       .  A
C819       C1834   1.416       .  A
C820        N837   1.156       .  T
C821        N839   1.157       .  T
C822        C823   1.415       .  A
C822        C827   1.451       .  S
C823       C1832   1.412       .  A
C823        C829   1.448       .  S
C824        C825   1.408       .  A
C824       C1831   1.412       .  A
C825        C826   1.411       .  A
C825        C828   1.447       .  S
C826       C1827   1.416       .  A
C826        C830   1.450       .  S
C827        N834   1.157       .  T
C828        N835   1.157       .  T
C829        N833   1.157       .  T
C830        N836   1.157       .  T
C831        N840   1.157       .  T
C832        N838   1.157       .  T
C841        C842   1.415       .  A
C841        C846   1.412       .  A
C841        C859   1.450       .  S
C842        C847   1.509       .  S
C842        C843   1.416       .  A
C843        C844   1.414       .  A
C843        C848   1.450       .  S
C844        C845   1.413       .  A
C844        C860   1.450       .  S
C845        C846   1.413       .  A
C846        C849   1.451       .  S
C847        C850   1.416       .  A
C847        C854   1.416       .  A
C848        N865   1.157       .  T
C849        N867   1.157       .  T
C850        C851   1.412       .  A
C850        C855   1.450       .  S
C851        C852   1.410       .  A
C851        C857   1.451       .  S
C852        C853   1.411       .  A
C853        C854   1.414       .  A
C853        C856   1.450       .  S
C854        C858   1.451       .  S
C855        N862   1.157       .  T
C856        N863   1.157       .  T
C857        N861   1.157       .  T
C858        N864   1.157       .  T
C859        N868   1.157       .  T
C860        N866   1.157       .  T
C869        C870   1.408       .  A
C869        C874   1.415       .  A
C869        C887   1.452       .  S
C870        C875   1.505       .  S
C870       C1879   1.408       .  A
C871        C872   1.414       .  A
C871       C1878   1.408       .  A
C871        C876   1.453       .  S
C872       C1881   1.429       .  A
C872        C888   1.451       .  S
C873        C874   1.428       .  A
C873       C1880   1.429       .  A
C874        C877   1.451       .  S
C875        C878   1.409       .  A
C875       C1890   1.410   1_554  A
C876        N893   1.157       .  T
C877        N895   1.158       .  T
C878        C879   1.413       .  A
C878        C883   1.451       .  S
C879        C880   1.422   1_554  A
C879        C885   1.448       .  S
C880       C1889   1.423       .  A
C881        C882   1.415       .  A
C881       C1888   1.423       .  A
C881        C884   1.448       .  S
C882       C1883   1.410       .  A
C882        C886   1.451       .  S
C883        N890   1.157       .  T
C884        N891   1.156       .  T
C885        N889   1.156       .  T
C886        N892   1.157       .  T
C887        N896   1.157       .  T
C888        N894   1.158       .  T
C897        C898   1.410       .  A
C897        C902   1.409       .  A
C897        C915   1.447       .  S
C898        C903   1.499       .  S
C898        C899   1.411       .  A
C899        C900   1.411       .  A
C899        C904   1.447       .  S
C900        C901   1.413       .  A
C900        C916   1.451       .  S
C901        C902   1.413       .  A
C902        C905   1.452       .  S
C903        C906   1.412       .  A
C903        C910   1.412       .  A
C904        N921   1.156       .  T
C905        N923   1.157       .  T
C906        C907   1.410       .  A
C906        C911   1.451       .  S
C907        C908   1.412       .  A
C907        C913   1.451       .  S
C908        C909   1.412       .  A
C909        C910   1.411       .  A
C909        C912   1.450       .  S
C910        C914   1.450       .  S
C911        N918   1.157       .  T
C912        N919   1.157       .  T
C913        N917   1.157       .  T
C914        N920   1.157       .  T
C915        N924   1.156       .  T
C916        N922   1.157       .  T
C925        C930   1.413       .  A
C925       C1934   1.414       .  A
C925        C943   1.449       .  S
C926        C931   1.506       .  S
C926        C927   1.414   1_556  A
C926       C1933   1.414       .  A
C927        C928   1.412       .  A
C927        C932   1.450       .  S
C928       C1937   1.412   1_554  A
C928        C944   1.451       .  S
C929        C930   1.412       .  A
C929       C1936   1.412       .  A
C930        C933   1.450       .  S
C931        C934   1.412   1_556  A
C931       C1946   1.411       .  A
C932        N949   1.157       .  T
C933        N951   1.157       .  T
C934        C935   1.415       .  A
C934        C939   1.448       .  S
C935        C936   1.415   1_554  A
C935        C941   1.451       .  S
C936       C1945   1.415       .  A
C937        C938   1.412       .  A
C937       C1944   1.415       .  A
C937        C940   1.451       .  S
C938       C1939   1.411       .  A
C938        C942   1.448       .  S
C939        N946   1.156       .  T
C940        N947   1.157       .  T
C941        N945   1.157       .  T
C942        N948   1.156       .  T
C943        N952   1.157       .  T
C944        N950   1.157       .  T
C953        C954   1.414       .  A
C953        C958   1.412       .  A
C953        C971   1.448       .  S
C954        C959   1.510       .  S
C954        C955   1.414       .  A
C955        C956   1.414       .  A
C955        C960   1.448       .  S
C956        C957   1.414       .  A
C956        C972   1.451       .  S
C957        C958   1.414       .  A
C958        C961   1.452       .  S
C959        C962   1.415       .  A
C959        C966   1.416       .  A
C960        N977   1.156       .  T
C961        N979   1.157       .  T
C962        C963   1.412       .  A
C962        C967   1.451       .  S
C963        C964   1.411       .  A
C963        C969   1.448       .  S
C964        C965   1.413       .  A
C965        C966   1.415       .  A
C965        C968   1.450       .  S
C966        C970   1.451       .  S
C967        N974   1.157       .  T
C968        N975   1.157       .  T
C969        N973   1.156       .  T
C970        N976   1.157       .  T
C971        N980   1.156       .  T
C972        N978   1.157       .  T
C981        C986   1.409       .  A
C981       C1990   1.411       .  A
C981        C999   1.450       .  S
C982        C987   1.498   1_554  S
C982        C983   1.412       .  A
C982       C1989   1.411   1_554  A
C983        C984   1.412       .  A
C983        C988   1.450       .  S
C984        C985   1.413       .  A
C984       C1000   1.450       .  S
C985       C1994   1.413   1_554  A
C986       C1993   1.413       .  A
C986        C989   1.451       .  S
C987        C990   1.411   1_556  A
C987       C2002   1.412       .  A
C988       N1005   1.157       .  T
C989       N1007   1.158       .  T
C990        C991   1.411       .  A
C990        C995   1.450       .  S
C991        C992   1.414   1_554  A
C991        C997   1.451       .  S
C992       C2001   1.413       .  A
C993        C994   1.411       .  A
C993       C2000   1.413       .  A
C993        C996   1.451       .  S
C994       C1995   1.412       .  A
C994        C998   1.449       .  S
C995       N1002   1.157       .  T
C996       N1003   1.157       .  T
C997       N1001   1.157       .  T
C998       N1004   1.157       .  T
C999       N1008   1.157       .  T
C1000      N1006   1.157       .  T
O1010     Ni1017   1.918       .  S
O1011     Ni1017   1.926       .  S
O1011      C1021   1.282       .  A
O1012      C1022   1.283       .  A
O1013      C1022   1.282       .  A
O1014     Ni1018   1.927       .  S
O1014      C1021   1.283       .  A
O1015      C1020   1.282       .  A
O1016     Ni1018   1.925       .  S
O1016      C1019   1.283       .  A
Ni1017    Ni1018   2.389       .  S
C1020      C2000   1.484       .  S
C1021      C1036   1.478       .  S
C1022      C1035   1.477       .  S
O1023     Ni1031   1.919       .  S
O1023      C1033   1.281       .  A
O1024     Ni1031   1.921       .  S
O1024      C1034   1.281       .  A
O1025     Ni1031   1.925       .  S
O1025      C1035   1.282       .  A
O1026     Ni1031   1.927       .  S
O1026      C1036   1.283       .  A
O1027     Ni1032   1.925       .  S
O1027      C1036   1.282       .  A
O1028     Ni1032   1.927       .  S
O1028      C1035   1.283       .  A
O1029     Ni1032   1.924       .  S
O1029      C1034   1.283       .  A
O1030     Ni1032   1.923       .  S
O1030      C1033   1.282       .  A
Ni1031    Ni1032   2.388       .  S
C1033      C1061   1.472       .  S
C1034      C1965   1.490       .  S
O1037     Ni1045   1.923       .  S
O1037      C1047   1.282       .  A
O1039      C1049   1.282       .  A
O1040     Ni1045   1.927       .  S
O1040      C1050   1.283       .  A
O1041     Ni1046   1.925       .  S
O1041      C1050   1.282       .  A
O1042      C1049   1.283       .  A
O1043     Ni1046   1.926   1_545  S
O1043      C1048   1.282       .  A
Ni1045    Ni1046   2.388       .  S
C1048      C1944   1.491       .  S
C1049      C1064   1.478       .  S
C1050      C1063   1.478       .  S
O1051     Ni1059   1.922       .  S
O1051      C1061   1.282       .  A
O1052     Ni1059   1.917   1_545  S
O1052      C1062   1.281       .  A
O1053     Ni1059   1.924       .  S
O1053      C1063   1.282       .  A
O1054     Ni1059   1.927       .  S
O1054      C1064   1.283       .  A
O1055     Ni1060   1.926       .  S
O1055      C1064   1.282       .  A
O1056     Ni1060   1.927       .  S
O1056      C1063   1.283       .  A
O1057     Ni1060   1.917   1_545  S
O1057      C1062   1.281       .  A
O1058     Ni1060   1.920       .  S
O1058      C1061   1.282       .  A
Ni1059    Ni1060   2.389       .  S
C1062      C1909   1.481       .  S
O1066     Ni1073   1.927       .  S
O1067     Ni1073   1.925   1_556  S
O1067      C1077   1.282       .  A
O1068      C1078   1.283       .  A
O1069      C1078   1.282       .  A
O1070     Ni1074   1.926   1_556  S
O1070      C1077   1.282       .  A
O1071      C1076   1.282       .  A
O1072     Ni1074   1.921       .  S
O1072      C1075   1.282       .  A
Ni1073    Ni1074   2.383       .  S
C1076      C1881   1.518       .  S
C1077      C1092   1.477       .  S
C1078      C1091   1.478       .  S
O1079     Ni1087   1.926       .  S
O1079      C1089   1.283       .  A
O1080     Ni1087   1.925       .  S
O1080      C1090   1.283       .  A
O1081     Ni1087   1.925       .  S
O1081      C1091   1.282       .  A
O1082     Ni1087   1.926       .  S
O1082      C1092   1.283       .  A
O1083     Ni1088   1.925       .  S
O1083      C1092   1.282       .  A
O1084     Ni1088   1.927       .  S
O1084      C1091   1.283       .  A
O1085     Ni1088   1.921       .  S
O1085      C1090   1.281       .  A
O1086     Ni1088   1.922       .  S
O1086      C1089   1.282       .  A
Ni1087    Ni1088   2.388       .  S
C1089      C1117   1.475   1_655  S
C1090      C1853   1.490       .  S
O1093     Ni1101   1.922       .  S
O1093      C1103   1.282       .  A
O1095      C1105   1.282       .  A
O1096     Ni1101   1.927       .  S
O1096      C1106   1.283       .  A
O1097     Ni1102   1.924       .  S
O1097      C1106   1.282       .  A
O1098      C1105   1.283       .  A
O1099     Ni1102   1.924       .  S
O1099      C1104   1.282       .  A
Ni1101    Ni1102   2.388       .  S
C1104      C1825   1.488       .  S
C1105      C1120   1.478       .  S
C1106      C1119   1.477       .  S
O1107     Ni1115   1.923       .  S
O1107      C1117   1.282       .  A
O1108     Ni1115   1.923       .  S
O1108      C1118   1.282       .  A
O1109     Ni1115   1.924       .  S
O1109      C1119   1.282       .  A
O1110     Ni1115   1.926       .  S
O1110      C1120   1.282       .  A
O1111     Ni1116   1.925       .  S
O1111      C1120   1.282       .  A
O1112     Ni1116   1.927       .  S
O1112      C1119   1.283       .  A
O1113     Ni1116   1.924       .  S
O1113      C1118   1.283       .  A
O1114     Ni1116   1.925       .  S
O1114      C1117   1.282       .  A
Ni1115    Ni1116   2.383       .  S
C1118      C1804   1.518       .  S
O1122     Ni1129   1.919       .  S
O1123     Ni1129   1.926   1_556  S
O1123      C1133   1.283   1_545  A
O1124      C1134   1.282   1_545  A
O1125      C1134   1.283       .  A
O1126     Ni1130   1.925   1_556  S
O1126      C1133   1.282       .  A
O1127      C1132   1.281       .  A
O1128     Ni1130   1.918       .  S
O1128      C1131   1.281       .  A
Ni1129    Ni1130   2.389   1_545  S
C1132      C1769   1.485       .  S
C1133      C1148   1.478       .  S
C1134      C1147   1.477       .  S
O1135     Ni1143   1.914   1_565  S
O1135      C1145   1.280       .  A
O1136     Ni1143   1.912       .  S
O1136      C1146   1.280       .  A
O1137     Ni1143   1.927       .  S
O1137      C1147   1.283   1_545  A
O1138     Ni1143   1.924       .  S
O1138      C1148   1.282   1_545  A
O1139     Ni1144   1.927       .  S
O1139      C1148   1.283       .  A
O1140     Ni1144   1.924       .  S
O1140      C1147   1.282       .  A
O1141     Ni1144   1.915   1_545  S
O1141      C1146   1.281       .  A
O1142     Ni1144   1.916       .  S
O1142      C1145   1.281       .  A
Ni1143    Ni1144   2.384   1_545  S
C1145      C1173   1.465       .  S
C1146      C1741   1.508       .  S
O1149     Ni1157   1.918       .  S
O1149      C1159   1.281       .  A
O1151      C1161   1.282       .  A
O1152     Ni1157   1.927       .  S
O1152      C1162   1.283       .  A
O1153     Ni1158   1.925       .  S
O1153      C1162   1.282       .  A
O1154      C1161   1.283       .  A
O1155     Ni1158   1.919       .  S
O1155      C1160   1.281       .  A
Ni1157    Ni1158   2.384       .  S
C1160      C1713   1.510       .  S
C1161      C1176   1.477       .  S
C1162      C1175   1.478       .  S
O1163     Ni1171   1.914       .  S
O1163      C1173   1.280       .  A
O1164     Ni1171   1.913       .  S
O1164      C1174   1.281       .  A
O1165     Ni1171   1.925       .  S
O1165      C1175   1.282       .  A
O1166     Ni1171   1.928       .  S
O1166      C1176   1.283       .  A
O1167     Ni1172   1.923       .  S
O1167      C1176   1.282       .  A
O1168     Ni1172   1.927       .  S
O1168      C1175   1.283       .  A
O1169     Ni1172   1.917       .  S
O1169      C1174   1.281       .  A
O1170     Ni1172   1.917       .  S
O1170      C1173   1.281       .  A
Ni1171    Ni1172   2.385       .  S
C1174      C1692   1.506       .  S
O1177     Ni1185   1.924       .  S
O1178     Ni1185   1.930       .  S
O1179     Ni1185   1.915       .  S
O1179      C1189   1.281       .  A
O1180     Ni1185   1.917       .  S
O1180      C1190   1.280       .  A
O1181     Ni1186   1.922       .  S
O1182     Ni1186   1.917       .  S
O1183     Ni1186   1.911       .  S
O1183      C1188   1.280   1_556  A
O1184     Ni1186   1.919       .  S
O1184      C1187   1.280       .  A
C1187      C1937   1.485       .  S
C1188      C1664   1.512       .  S
C1189      C1608   1.496       .  S
C1190      C1629   1.481       .  S
O1191     Ni1199   1.914       .  S
O1191      C1201   1.281       .  A
O1192     Ni1199   1.915       .  S
O1192      C1202   1.280       .  A
O1193     Ni1199   1.922       .  S
O1193      C1203   1.281       .  A
O1194     Ni1199   1.920       .  S
O1194      C1204   1.281       .  A
O1195     Ni1200   1.926       .  S
O1195      C1204   1.282       .  A
O1196     Ni1200   1.918       .  S
O1196      C1203   1.281       .  A
O1197     Ni1200   1.919       .  S
O1197      C1202   1.282       .  A
O1198     Ni1200   1.919       .  S
O1198      C1201   1.282       .  A
Ni1199    Ni1200   2.389       .  S
C1201      C1517   1.493       .  S
C1202      C1545   1.482       .  S
C1203      C1916   1.481       .  S
C1204      C1580   1.485       .  S
O1205     Ni1213   1.907       .  S
O1206     Ni1213   1.912       .  S
O1207     Ni1213   1.936       .  S
O1207      C1217   1.285   1_556  A
O1208     Ni1213   1.939       .  S
O1208      C1218   1.287   1_556  A
O1209     Ni1214   1.909       .  S
O1210     Ni1214   1.924       .  S
O1211     Ni1214   1.939       .  S
O1211      C1216   1.287       .  A
O1212     Ni1214   1.932       .  S
O1212      C1215   1.285       .  A
C1215      C1993   1.484       .  S
C1216      C1657   1.490       .  S
C1217      C1832   1.491       .  S
C1218      C1496   1.512   1_554  S
O1219     Ni1227   1.924       .  S
O1219      C1229   1.282       .  A
O1220     Ni1227   1.917       .  S
O1220      C1230   1.281       .  A
O1221     Ni1227   1.927       .  S
O1221      C1231   1.282       .  A
O1222     Ni1227   1.930       .  S
O1222      C1232   1.284       .  A
O1223     Ni1228   1.922       .  S
O1223      C1232   1.282       .  A
O1224     Ni1228   1.926       .  S
O1224      C1231   1.282       .  A
O1225     Ni1228   1.922       .  S
O1225      C1230   1.283       .  A
O1226     Ni1228   1.921       .  S
O1226      C1229   1.283       .  A
Ni1227    Ni1228   2.382       .  S
C1229      C1797   1.510       .  S
C1230      C1461   1.496       .  S
C1231      C1972   1.488       .  S
C1232      C1573   1.501       .  S
O1233     Ni1241   1.923       .  S
O1234     Ni1241   1.919       .  S
O1235     Ni1241   1.928       .  S
O1235      C1245   1.284       .  A
O1236     Ni1241   1.924       .  S
O1236      C1246   1.282       .  A
O1237     Ni1242   1.912       .  S
O1238     Ni1242   1.914       .  S
O1239     Ni1242   1.923       .  S
O1239      C1244   1.281       .  A
O1240     Ni1242   1.915       .  S
O1240      C1243   1.279       .  A
C1243      C1776   1.480       .  S
C1244      C1440   1.481       .  S
C1245      C1405   1.501       .  S
C1246      C1636   1.503       .  S
O1247     Ni1255   1.918       .  S
O1247      C1257   1.281       .  A
O1248     Ni1255   1.920       .  S
O1248      C1258   1.282       .  A
O1249     Ni1255   1.915       .  S
O1249      C1259   1.281       .  A
O1250     Ni1255   1.921       .  S
O1250      C1260   1.281       .  A
O1251     Ni1256   1.912       .  S
O1251      C1260   1.279       .  A
O1252     Ni1256   1.918       .  S
O1252      C1259   1.281       .  A
O1253     Ni1256   1.915       .  S
O1253      C1258   1.281       .  A
O1254     Ni1256   1.924       .  S
O1254      C1257   1.283       .  A
Ni1255    Ni1256   2.382       .  S
C1257      C1349   1.506       .  S
C1258      C1552   1.496       .  S
C1259      C1748   1.502       .  S
C1260      C1384   1.476       .  S
O1261     Ni1269   1.912       .  S
O1262     Ni1269   1.911       .  S
O1263     Ni1269   1.925       .  S
O1263      C1273   1.283       .  A
O1264     Ni1269   1.930       .  S
O1264      C1274   1.283       .  A
O1265     Ni1270   1.920       .  S
O1266     Ni1270   1.926       .  S
O1267     Ni1270   1.925       .  S
O1267      C1272   1.283       .  A
O1268     Ni1270   1.920       .  S
O1268      C1271   1.283       .  A
C1271      C1720   1.497       .  S
C1272      C1433   1.504       .  S
C1273      C1888   1.510       .  S
C1274      C1489   1.486       .  S
O1275     Ni1283   1.928       .  S
O1275      C1285   1.282       .  A
O1276     Ni1283   1.920       .  S
O1276      C1286   1.280       .  A
O1277     Ni1283   1.920       .  S
O1277      C1287   1.282       .  A
O1278     Ni1283   1.919       .  S
O1278      C1288   1.282       .  A
O1279     Ni1284   1.911       .  S
O1279      C1288   1.281       .  A
O1280     Ni1284   1.912       .  S
O1280      C1287   1.281       .  A
O1281     Ni1284   1.922       .  S
O1281      C1286   1.281       .  A
O1282     Ni1284   1.918       .  S
O1282      C1285   1.280       .  A
Ni1283    Ni1284   2.385       .  S
C1285      C1860   1.484       .  S
C1286      C1468   1.482       .  S
C1287      C1685   1.502       .  S
C1288      C1377   1.497       .  S
O1290     Ni1297   1.918       .  S
O1290      C1300   1.282       .  A
O1291     Ni1297   1.928       .  S
O1291      C1301   1.283       .  A
O1292      C1302   1.282       .  A
O1293      C1302   1.283       .  A
O1294     Ni1298   1.924       .  S
O1294      C1301   1.282       .  A
O1296     Ni1298   1.919       .  S
O1296      C1299   1.282       .  A
Ni1297    Ni1298   2.384       .  S
C1301      C1316   1.478       .  S
C1302      C1315   1.477       .  S
O1303     Ni1311   1.923       .  S
O1303      C1313   1.282       .  A
O1304     Ni1311   1.921       .  S
O1304      C1314   1.283       .  A
O1305     Ni1311   1.927       .  S
O1305      C1315   1.283       .  A
O1306     Ni1311   1.923       .  S
O1306      C1316   1.282       .  A
O1307     Ni1312   1.928       .  S
O1307      C1316   1.283       .  A
O1308     Ni1312   1.925       .  S
O1308      C1315   1.282       .  A
O1309     Ni1312   1.918       .  S
O1309      C1314   1.281       .  A
O1310     Ni1312   1.918       .  S
O1310      C1313   1.281       .  A
Ni1311    Ni1312   2.384       .  S
C1313      C1341   1.471       .  S
C1314      C1524   1.509       .  S
O1317     Ni1325   1.916       .  S
O1317      C1327   1.280   1_655  A
O1319      C1329   1.282       .  A
O1320     Ni1325   1.928       .  S
O1320      C1330   1.283       .  A
O1321     Ni1326   1.923       .  S
O1321      C1330   1.282       .  A
O1322      C1329   1.283       .  A
O1323     Ni1326   1.926       .  S
O1323      C1328   1.283       .  A
Ni1325    Ni1326   2.385       .  S
C1328      C1412   1.509       .  S
C1329      C1344   1.477       .  S
C1330      C1343   1.478       .  S
O1331     Ni1339   1.917       .  S
O1331      C1341   1.281   1_655  A
O1332     Ni1339   1.917       .  S
O1332      C1342   1.282       .  A
O1333     Ni1339   1.923       .  S
O1333      C1343   1.282       .  A
O1334     Ni1339   1.927       .  S
O1334      C1344   1.283       .  A
O1335     Ni1340   1.924       .  S
O1335      C1344   1.282       .  A
O1336     Ni1340   1.928       .  S
O1336      C1343   1.283       .  A
O1337     Ni1340   1.925       .  S
O1337      C1342   1.283       .  A
O1338     Ni1340   1.924   1_455  S
O1338      C1341   1.282       .  A
Ni1339    Ni1340   2.385       .  S
C1342      C1356   1.508       .  S
C1345      C1346   1.406       .  A
C1345      C1350   1.413       .  A
C1345      C1363   1.447       .  S
C1346      C1351   1.502       .  S
C1346      C1347   1.406       .  A
C1347      C1348   1.412       .  A
C1347      C1352   1.448       .  S
C1348      C1349   1.424       .  A
C1348      C1364   1.450       .  S
C1349      C1350   1.425       .  A
C1350      C1353   1.452       .  S
C1351      C1354   1.408       .  A
C1351      C1358   1.409       .  A
C1352      N1369   1.156       .  T
C1353      N1371   1.158       .  T
C1354      C1355   1.411       .  A
C1354      C1359   1.451       .  S
C1355      C1356   1.424       .  A
C1355      C1361   1.451       .  S
C1356      C1357   1.424       .  A
C1357      C1358   1.414       .  A
C1357      C1360   1.451       .  S
C1358      C1362   1.451       .  S
C1359      N1366   1.157       .  T
C1360      N1367   1.157       .  T
C1361      N1365   1.158       .  T
C1362      N1368   1.157       .  T
C1363      N1372   1.155       .  T
C1364      N1370   1.157       .  T
C1373      C1374   1.409       .  A
C1373      C1378   1.409       .  A
C1373      C1391   1.452       .  S
C1374      C1379   1.497       .  S
C1374      C1375   1.410       .  A
C1375      C1376   1.411       .  A
C1375      C1380   1.451       .  S
C1376      C1377   1.421       .  A
C1376      C1392   1.452       .  S
C1377      C1378   1.422       .  A
C1378      C1381   1.453       .  S
C1379      C1382   1.412       .  A
C1379      C1386   1.413       .  A
C1380      N1397   1.157       .  T
C1381      N1399   1.158       .  T
C1382      C1383   1.409       .  A
C1382      C1387   1.451       .  S
C1383      C1384   1.412       .  A
C1383      C1389   1.450       .  S
C1384      C1385   1.409       .  A
C1385      C1386   1.409       .  A
C1385      C1388   1.449       .  S
C1386      C1390   1.451       .  S
C1387      N1394   1.157       .  T
C1388      N1395   1.157       .  T
C1389      N1393   1.157       .  T
C1390      N1396   1.157       .  T
C1391      N1400   1.157       .  T
C1392      N1398   1.158       .  T
C1401      C1402   1.411       .  A
C1401      C1406   1.413       .  A
C1401      C1419   1.449       .  S
C1403      C1404   1.413       .  A
C1403      C1408   1.450       .  S
C1404      C1420   1.452       .  S
C1405      C1406   1.420       .  A
C1406      C1409   1.452       .  S
C1407      C1414   1.410       .  A
C1408      N1425   1.156       .  T
C1409      N1427   1.158       .  T
C1410      C1411   1.415       .  A
C1410      C1415   1.451       .  S
C1411      C1417   1.451       .  S
C1412      C1413   1.425       .  A
C1413      C1414   1.412       .  A
C1413      C1416   1.452       .  S
C1414      C1418   1.452       .  S
C1415      N1422   1.158       .  T
C1416      N1423   1.158       .  T
C1417      N1421   1.158       .  T
C1418      N1424   1.157       .  T
C1419      N1428   1.156       .  T
C1420      N1426   1.158       .  T
C1429      C1430   1.409       .  A
C1429      C1434   1.412       .  A
C1429      C1447   1.451       .  S
C1430      C1435   1.501       .  S
C1431      C1432   1.411       .  A
C1431      C1436   1.451       .  S
C1432      C1433   1.422       .  A
C1432      C1448   1.449       .  S
C1434      C1437   1.452       .  S
C1435      C1442   1.414       .  A
C1436      N1453   1.156       .  T
C1437      N1455   1.157       .  T
C1438      C1439   1.411       .  A
C1438      C1443   1.451       .  S
C1439      C1445   1.450       .  S
C1440      C1441   1.410       .  A
C1441      C1442   1.410       .  A
C1441      C1444   1.449       .  S
C1442      C1446   1.451       .  S
C1443      N1450   1.157       .  T
C1444      N1451   1.156       .  T
C1445      N1449   1.157       .  T
C1446      N1452   1.157       .  T
C1447      N1456   1.157       .  T
C1448      N1454   1.157       .  T
C1457      C1458   1.415       .  A
C1457      C1462   1.412       .  A
C1457      C1475   1.452       .  S
C1458      C1463   1.507       .  S
C1458      C1459   1.415       .  A
C1459      C1460   1.412       .  A
C1459      C1464   1.452       .  S
C1460      C1461   1.417       .  A
C1460      C1476   1.452       .  S
C1461      C1462   1.417       .  A
C1462      C1465   1.451       .  S
C1463      C1466   1.416       .  A
C1463      C1470   1.417       .  A
C1464      N1481   1.157       .  T
C1465      N1483   1.157       .  T
C1466      C1467   1.411       .  A
C1466      C1471   1.451       .  S
C1467      C1468   1.409       .  A
C1467      C1473   1.450       .  S
C1468      C1469   1.411       .  A
C1469      C1470   1.413       .  A
C1469      C1472   1.451       .  S
C1470      C1474   1.451       .  S
C1471      N1478   1.157       .  T
C1472      N1479   1.157       .  T
C1473      N1477   1.157       .  T
C1474      N1480   1.157       .  T
C1475      N1484   1.158       .  T
C1476      N1482   1.157       .  T
C1485      C1486   1.414       .  A
C1485      C1490   1.414       .  A
C1485      C1503   1.450       .  S
C1486      C1491   1.507       .  S
C1487      C1488   1.413       .  A
C1487      C1492   1.450       .  S
C1488      C1504   1.450       .  S
C1489      C1490   1.412       .  A
C1490      C1493   1.450       .  S
C1491      C1498   1.408       .  A
C1492      N1509   1.157       .  T
C1493      N1511   1.157       .  T
C1494      C1495   1.417       .  A
C1494      C1499   1.448       .  S
C1495      C1496   1.422       .  A
C1495      C1501   1.449       .  S
C1497      C1498   1.411       .  A
C1497      C1500   1.450       .  S
C1498      C1502   1.452       .  S
C1499      N1506   1.156       .  T
C1500      N1507   1.157       .  T
C1501      N1505   1.157       .  T
C1502      N1508   1.157       .  T
C1503      N1512   1.157       .  T
C1504      N1510   1.157       .  T
C1513      C1514   1.410       .  A
C1513      C1518   1.410       .  A
C1513      C1531   1.451       .  S
C1514      C1519   1.500       .  S
C1514      C1515   1.411       .  A
C1515      C1516   1.411       .  A
C1515      C1520   1.449       .  S
C1516      C1517   1.418       .  A
C1516      C1532   1.452       .  S
C1517      C1518   1.419       .  A
C1518      C1521   1.451       .  S
C1519      C1522   1.409       .  A
C1519      C1526   1.408       .  A
C1520      N1537   1.156       .  T
C1521      N1539   1.157       .  T
C1522      C1523   1.413       .  A
C1522      C1527   1.452       .  S
C1523      C1524   1.426       .  A
C1523      C1529   1.451       .  S
C1524      C1525   1.424       .  A
C1525      C1526   1.412       .  A
C1525      C1528   1.451       .  S
C1526      C1530   1.452       .  S
C1527      N1534   1.157       .  T
C1528      N1535   1.157       .  T
C1529      N1533   1.158       .  T
C1530      N1536   1.157       .  T
C1531      N1540   1.157       .  T
C1532      N1538   1.157       .  T
C1541      C1542   1.412       .  A
C1541      C1546   1.409       .  A
C1541      C1559   1.450       .  S
C1542      C1547   1.499       .  S
C1542      C1543   1.413       .  A
C1543      C1544   1.410       .  A
C1543      C1548   1.450       .  S
C1544      C1545   1.413       .  A
C1544      C1560   1.451       .  S
C1545      C1546   1.412       .  A
C1546      C1549   1.451       .  S
C1547      C1550   1.410       .  A
C1547      C1554   1.410       .  A
C1548      N1565   1.157       .  T
C1549      N1567   1.158       .  T
C1550      C1551   1.411       .  A
C1550      C1555   1.451       .  S
C1551      C1552   1.420       .  A
C1551      C1557   1.451       .  S
C1552      C1553   1.419       .  A
C1553      C1554   1.411       .  A
C1553      C1556   1.452       .  S
C1554      C1558   1.450       .  S
C1555      N1562   1.157       .  T
C1556      N1563   1.158       .  T
C1557      N1561   1.157       .  T
C1558      N1564   1.156       .  T
C1559      N1568   1.157       .  T
C1560      N1566   1.157       .  T
C1569      C1570   1.412       .  A
C1569      C1574   1.413       .  A
C1569      C1587   1.451       .  S
C1570      C1575   1.508       .  S
C1570      C1571   1.414       .  A
C1571      C1572   1.414       .  A
C1571      C1576   1.451       .  S
C1572      C1573   1.418       .  A
C1572      C1588   1.449       .  S
C1573      C1574   1.415       .  A
C1574      C1577   1.445       .  S
C1575      C1578   1.416       .  A
C1575      C1582   1.416       .  A
C1576      N1593   1.157       .  T
C1577      N1595   1.155       .  T
C1578      C1579   1.412       .  A
C1578      C1583   1.451       .  S
C1579      C1580   1.412       .  A
C1579      C1585   1.451       .  S
C1580      C1581   1.411       .  A
C1581      C1582   1.413       .  A
C1581      C1584   1.450       .  S
C1582      C1586   1.451       .  S
C1583      N1590   1.157       .  T
C1584      N1591   1.157       .  T
C1585      N1589   1.157       .  T
C1586      N1592   1.157       .  T
C1587      N1596   1.157       .  T
C1588      N1594   1.156       .  T
C1597      C1598   1.407       .  A
C1597      C1602   1.413       .  A
C1597      C1615   1.452       .  S
C1598      C1603   1.498       .  S
C1599      C1600   1.411       .  A
C1599      C1604   1.453       .  S
C1600      C1616   1.452       .  S
C1601      C1602   1.426       .  A
C1602      C1605   1.451       .  S
C1603      C1610   1.408       .  A
C1604      N1621   1.157       .  T
C1605      N1623   1.158       .  T
C1606      C1607   1.411       .  A
C1606      C1611   1.450       .  S
C1607      C1613   1.451       .  S
C1608      C1609   1.421       .  A
C1609      C1610   1.410       .  A
C1609      C1612   1.450       .  S
C1610      C1614   1.450       .  S
C1611      N1618   1.157       .  T
C1612      N1619   1.157       .  T
C1613      N1617   1.157       .  T
C1614      N1620   1.156       .  T
C1615      N1624   1.157       .  T
C1616      N1622   1.157       .  T
C1625      C1630   1.411       .  A
C1625      C1643   1.451       .  S
C1626      C1631   1.498       .  S
C1626      C1627   1.412       .  A
C1627      C1628   1.410       .  A
C1627      C1632   1.450       .  S
C1628      C1629   1.412       .  A
C1628      C1644   1.450       .  S
C1630      C1633   1.449       .  S
C1631      C1634   1.404       .  A
C1632      N1649   1.157       .  T
C1633      N1651   1.157       .  T
C1634      C1635   1.409       .  A
C1634      C1639   1.446       .  S
C1635      C1641   1.452       .  S
C1636      C1637   1.423       .  A
C1637      C1638   1.412       .  A
C1637      C1640   1.449       .  S
C1638      C1642   1.447       .  S
C1639      N1646   1.154       .  T
C1640      N1647   1.157       .  T
C1641      N1645   1.157       .  T
C1642      N1648   1.155       .  T
C1643      N1652   1.157       .  T
C1644      N1650   1.157       .  T
C1653      C1654   1.408       .  A
C1653      C1658   1.410       .  A
C1653      C1671   1.451       .  S
C1655      C1656   1.412   1_554  A
C1655      C1660   1.451   1_554  S
C1656      C1672   1.448       .  S
C1657      C1658   1.413       .  A
C1658      C1661   1.445       .  S
C1659      C1666   1.405   1_554  A
C1660      N1677   1.157       .  T
C1661      N1679   1.155       .  T
C1662      C1663   1.413       .  A
C1662      C1667   1.449       .  S
C1663      C1669   1.445       .  S
C1664      C1665   1.425   1_554  A
C1665      C1666   1.411       .  A
C1665      C1668   1.446       .  S
C1666      C1670   1.451       .  S
C1667      N1674   1.156       .  T
C1668      N1675   1.155       .  T
C1669      N1673   1.155       .  T
C1670      N1676   1.157       .  T
C1671      N1680   1.157       .  T
C1672      N1678   1.157       .  T
C1681      C1682   1.406       .  A
C1681      C1686   1.410       .  A
C1681      C1699   1.450       .  S
C1682      C1687   1.495       .  S
C1682      C1683   1.405       .  A
C1683      C1684   1.409       .  A
C1683      C1688   1.450       .  S
C1684      C1685   1.424       .  A
C1684      C1700   1.449       .  S
C1685      C1686   1.426       .  A
C1686      C1689   1.453       .  S
C1687      C1690   1.407       .  A
C1687      C1694   1.407       .  A
C1688      N1705   1.156       .  T
C1689      N1707   1.158       .  T
C1690      C1691   1.410       .  A
C1690      C1695   1.453       .  S
C1691      C1692   1.426       .  A
C1691      C1697   1.452       .  S
C1692      C1693   1.426       .  A
C1693      C1694   1.411       .  A
C1693      C1696   1.451       .  S
C1694      C1698   1.452       .  S
C1695      N1702   1.157       .  T
C1696      N1703   1.158       .  T
C1697      N1701   1.158       .  T
C1698      N1704   1.157       .  T
C1699      N1708   1.157       .  T
C1700      N1706   1.157       .  T
C1709      C1710   1.409       .  A
C1709      C1714   1.412       .  A
C1709      C1727   1.453       .  S
C1711      C1712   1.413       .  A
C1711      C1716   1.453       .  S
C1712      C1728   1.451       .  S
C1713      C1714   1.426       .  A
C1714      C1717   1.452       .  S
C1715      C1722   1.411   1_554  A
C1716      N1733   1.157       .  T
C1717      N1735   1.157       .  T
C1718      C1719   1.411       .  A
C1718      C1723   1.451       .  S
C1719      C1725   1.453       .  S
C1720      C1721   1.419       .  A
C1721      C1722   1.410       .  A
C1721      C1724   1.452       .  S
C1722      C1726   1.450       .  S
C1723      N1730   1.157       .  T
C1724      N1731   1.158       .  T
C1725      N1729   1.158       .  T
C1726      N1732   1.156       .  T
C1727      N1736   1.158       .  T
C1728      N1734   1.158       .  T
C1737      C1738   1.406       .  A
C1737      C1742   1.409       .  A
C1737      C1755   1.453       .  S
C1738      C1743   1.494       .  S
C1738      C1739   1.406       .  A
C1739      C1740   1.411       .  A
C1739      C1744   1.452       .  S
C1740      C1741   1.427       .  A
C1740      C1756   1.452       .  S
C1741      C1742   1.428       .  A
C1742      C1745   1.452       .  S
C1743      C1746   1.406       .  A
C1743      C1750   1.406       .  A
C1744      N1761   1.157       .  T
C1745      N1763   1.158       .  T
C1746      C1747   1.409       .  A
C1746      C1751   1.451       .  S
C1747      C1748   1.423       .  A
C1747      C1753   1.449       .  S
C1748      C1749   1.423       .  A
C1749      C1750   1.411       .  A
C1749      C1752   1.449       .  S
C1750      C1754   1.451       .  S
C1751      N1758   1.157       .  T
C1752      N1759   1.156       .  T
C1753      N1757   1.156       .  T
C1754      N1760   1.157       .  T
C1755      N1764   1.157       .  T
C1756      N1762   1.158       .  T
C1765      C1766   1.415       .  A
C1765      C1770   1.411       .  A
C1765      C1783   1.450       .  S
C1766      C1771   1.503       .  S
C1767      C1768   1.411       .  A
C1767      C1772   1.450       .  S
C1768      C1784   1.451       .  S
C1769      C1770   1.412       .  A
C1770      C1773   1.450       .  S
C1771      C1778   1.414       .  A
C1772      N1789   1.157       .  T
C1773      N1791   1.157       .  T
C1774      C1775   1.412       .  A
C1774      C1779   1.450       .  S
C1775      C1781   1.451       .  S
C1776      C1777   1.411       .  A
C1777      C1778   1.410       .  A
C1777      C1780   1.449       .  S
C1778      C1782   1.452       .  S
C1779      N1786   1.157       .  T
C1780      N1787   1.156       .  T
C1781      N1785   1.157       .  T
C1782      N1788   1.157       .  T
C1783      N1792   1.157       .  T
C1784      N1790   1.157       .  T
C1793      C1794   1.410       .  A
C1793      C1798   1.412       .  A
C1793      C1811   1.451       .  S
C1794      C1799   1.505       .  S
C1794      C1795   1.410       .  A
C1795      C1796   1.414       .  A
C1795      C1800   1.452       .  S
C1796      C1797   1.423       .  A
C1796      C1812   1.447       .  S
C1797      C1798   1.422       .  A
C1798      C1801   1.448       .  S
C1799      C1802   1.408       .  A
C1799      C1806   1.408       .  A
C1800      N1817   1.157       .  T
C1801      N1819   1.156       .  T
C1802      C1803   1.415       .  A
C1802      C1807   1.453       .  S
C1803      C1804   1.429       .  A
C1803      C1809   1.451       .  S
C1804      C1805   1.429       .  A
C1805      C1806   1.414       .  A
C1805      C1808   1.451       .  S
C1806      C1810   1.453       .  S
C1807      N1814   1.157       .  T
C1808      N1815   1.158       .  T
C1809      N1813   1.158       .  T
C1810      N1816   1.157       .  T
C1811      N1820   1.157       .  T
C1812      N1818   1.156       .  T
C1821      C1826   1.414       .  A
C1821      C1839   1.450       .  S
C1822      C1827   1.511       .  S
C1822      C1823   1.418       .  A
C1823      C1824   1.413       .  A
C1823      C1828   1.449       .  S
C1824      C1825   1.411       .  A
C1824      C1840   1.451       .  S
C1826      C1829   1.450       .  S
C1827      C1830   1.417       .  A
C1828      N1845   1.156       .  T
C1829      N1847   1.157       .  T
C1830      C1831   1.415       .  A
C1830      C1835   1.451       .  S
C1831      C1837   1.448       .  S
C1832      C1833   1.407       .  A
C1833      C1834   1.411       .  A
C1833      C1836   1.447       .  S
C1834      C1838   1.450       .  S
C1835      N1842   1.157       .  T
C1836      N1843   1.157       .  T
C1837      N1841   1.157       .  T
C1838      N1844   1.157       .  T
C1839      N1848   1.157       .  T
C1840      N1846   1.157       .  T
C1849      C1850   1.415       .  A
C1849      C1854   1.412       .  A
C1849      C1867   1.450       .  S
C1850      C1855   1.509       .  S
C1850      C1851   1.416       .  A
C1851      C1852   1.414       .  A
C1851      C1856   1.450       .  S
C1852      C1853   1.413       .  A
C1852      C1868   1.450       .  S
C1853      C1854   1.413       .  A
C1854      C1857   1.451       .  S
C1855      C1858   1.416       .  A
C1855      C1862   1.416       .  A
C1856      N1873   1.157       .  T
C1857      N1875   1.157       .  T
C1858      C1859   1.412       .  A
C1858      C1863   1.450       .  S
C1859      C1860   1.410       .  A
C1859      C1865   1.451       .  S
C1860      C1861   1.411       .  A
C1861      C1862   1.414       .  A
C1861      C1864   1.450       .  S
C1862      C1866   1.451       .  S
C1863      N1870   1.157       .  T
C1864      N1871   1.157       .  T
C1865      N1869   1.157       .  T
C1866      N1872   1.157       .  T
C1867      N1876   1.157       .  T
C1868      N1874   1.157       .  T
C1877      C1878   1.408       .  A
C1877      C1882   1.415       .  A
C1877      C1895   1.452       .  S
C1878      C1883   1.505       .  S
C1879      C1880   1.414       .  A
C1879      C1884   1.453   1_554  S
C1880      C1896   1.451       .  S
C1881      C1882   1.428       .  A
C1882      C1885   1.451       .  S
C1883      C1886   1.409       .  A
C1884      N1901   1.157       .  T
C1885      N1903   1.158       .  T
C1886      C1887   1.413       .  A
C1886      C1891   1.451       .  S
C1887      C1888   1.422       .  A
C1887      C1893   1.448       .  S
C1889      C1890   1.415       .  A
C1889      C1892   1.448       .  S
C1890      C1894   1.451       .  S
C1891      N1898   1.157       .  T
C1892      N1899   1.156       .  T
C1893      N1897   1.156       .  T
C1894      N1900   1.157       .  T
C1895      N1904   1.157       .  T
C1896      N1902   1.158       .  T
C1905      C1906   1.410       .  A
C1905      C1910   1.409       .  A
C1905      C1923   1.447       .  S
C1906      C1911   1.499       .  S
C1906      C1907   1.411       .  A
C1907      C1908   1.411       .  A
C1907      C1912   1.447       .  S
C1908      C1909   1.413       .  A
C1908      C1924   1.451       .  S
C1909      C1910   1.413       .  A
C1910      C1913   1.451       .  S
C1911      C1914   1.412       .  A
C1911      C1918   1.412       .  A
C1912      N1929   1.156       .  T
C1913      N1931   1.157       .  T
C1914      C1915   1.410       .  A
C1914      C1919   1.451       .  S
C1915      C1916   1.412       .  A
C1915      C1921   1.451       .  S
C1916      C1917   1.412       .  A
C1917      C1918   1.411       .  A
C1917      C1920   1.450       .  S
C1918      C1922   1.450       .  S
C1919      N1926   1.157       .  T
C1920      N1927   1.157       .  T
C1921      N1925   1.157       .  T
C1922      N1928   1.157       .  T
C1923      N1932   1.156       .  T
C1924      N1930   1.157       .  T
C1933      C1938   1.413       .  A
C1933      C1951   1.449       .  S
C1934      C1939   1.505       .  S
C1934      C1935   1.414       .  A
C1935      C1936   1.412       .  A
C1935      C1940   1.450       .  S
C1936      C1952   1.451       .  S
C1937      C1938   1.412       .  A
C1938      C1941   1.450       .  S
C1939      C1942   1.412       .  A
C1940      N1957   1.157       .  T
C1941      N1959   1.157       .  T
C1942      C1943   1.415       .  A
C1942      C1947   1.448       .  S
C1943      C1944   1.415       .  A
C1943      C1949   1.451       .  S
C1945      C1946   1.412       .  A
C1945      C1948   1.451       .  S
C1946      C1950   1.448       .  S
C1947      N1954   1.156       .  T
C1948      N1955   1.157       .  T
C1949      N1953   1.157       .  T
C1950      N1956   1.156       .  T
C1951      N1960   1.157       .  T
C1952      N1958   1.157       .  T
C1961      C1962   1.414       .  A
C1961      C1966   1.412       .  A
C1961      C1979   1.448       .  S
C1962      C1967   1.510       .  S
C1962      C1963   1.414       .  A
C1963      C1964   1.414       .  A
C1963      C1968   1.448       .  S
C1964      C1965   1.414       .  A
C1964      C1980   1.451       .  S
C1965      C1966   1.414       .  A
C1966      C1969   1.452       .  S
C1967      C1970   1.415       .  A
C1967      C1974   1.416       .  A
C1968      N1985   1.156       .  T
C1969      N1987   1.157       .  T
C1970      C1971   1.412       .  A
C1970      C1975   1.451       .  S
C1971      C1972   1.411       .  A
C1971      C1977   1.448       .  S
C1972      C1973   1.413       .  A
C1973      C1974   1.415       .  A
C1973      C1976   1.450       .  S
C1974      C1978   1.451       .  S
C1975      N1982   1.157       .  T
C1976      N1983   1.157       .  T
C1977      N1981   1.156       .  T
C1978      N1984   1.157       .  T
C1979      N1988   1.156       .  T
C1980      N1986   1.157       .  T
C1989      C1994   1.409       .  A
C1989      C2007   1.450       .  S
C1990      C1995   1.498       .  S
C1990      C1991   1.412       .  A
C1991      C1992   1.412       .  A
C1991      C1996   1.450       .  S
C1992      C1993   1.413       .  A
C1992      C2008   1.450       .  S
C1994      C1997   1.451       .  S
C1995      C1998   1.411       .  A
C1996      N2013   1.157       .  T
C1997      N2015   1.158       .  T
C1998      C1999   1.411       .  A
C1998      C2003   1.450       .  S
C1999      C2000   1.414       .  A
C1999      C2005   1.451       .  S
C2001      C2002   1.411       .  A
C2001      C2004   1.451       .  S
C2002      C2006   1.449       .  S
C2003      N2010   1.157       .  T
C2004      N2011   1.157       .  T
C2005      N2009   1.157       .  T
C2006      N2012   1.157       .  T
C2007      N2016   1.157       .  T
C2008      N2014   1.157       .  T
