geometry optimzed in LAMMPS
_audit_creation_date              2020-11-30 
_audit_creation_method            'lammps2cif' 
_symmetry_space_group_name_H-M    'P1' 
_symmetry_Int_Tables_number       1 
_symmetry_cell_setting            triclinic 
loop_ 
_symmetry_equiv_pos_as_xyz 
  x,y,z 
_cell_length_a                    39.94186684 
_cell_length_b                    39.87359001233246 
_cell_length_c                    39.973362328676444 
_cell_angle_alpha                 89.94101493347412 
_cell_angle_beta                  89.99632219842731 
_cell_angle_gamma                 90.0796229961176 
loop_ 
_atom_site_label 
_atom_site_type_symbol 
_atom_site_fract_x 
_atom_site_fract_y 
_atom_site_fract_z 
_atom_site_charge 
O1          O  0.53561094  0.26783110  0.96811872    -0.72500
O2          O  0.46104272  0.26946691  0.03553049    -0.73500
O3          O  0.53223919  0.26997301  0.03852788    -0.62100
O4          O  0.46417518  0.26746169  0.96473185    -0.70500
O5          O  0.46398792  0.21191206  0.96644196    -0.70000
O6          O  0.53287764  0.21439593  0.03968525    -0.61300
O7          O  0.46186205  0.21389268  0.03757769    -0.73800
O8          O  0.53526768  0.21218767  0.96882630    -0.72600
Cu9        Cu  0.49821199  0.27061119  0.00162515     1.04600
Cu10       Cu  0.49845541  0.21116023  0.00316663     1.04300
C11         C  0.54759710  0.23982799  0.95827542     0.93700
C12         C  0.44974105  0.24188259  0.04730122     0.92900
C13         C  0.54348324  0.24255443  0.05066670     0.85000
C14         C  0.45323002  0.23934760  0.95391136     0.91300
O15         O  0.22904276  0.53453852  0.96551074    -0.72500
O16         O  0.23015019  0.46461305  0.03722174    -0.73500
O17         O  0.23042812  0.53547212  0.03628464    -0.62100
O18         O  0.22901086  0.46363511  0.96635146    -0.70500
O19         O  0.28431566  0.46304047  0.96559037    -0.70000
O20         O  0.28577149  0.53596311  0.03539883    -0.61300
O21         O  0.28557734  0.46442182  0.03701024    -0.73800
O22         O  0.28444310  0.53450640  0.96419166    -0.72600
Cu23       Cu  0.22782378  0.49953732  0.00137313     1.04600
Cu24       Cu  0.28701922  0.49944919  0.00050247     1.04300
C25         C  0.25648010  0.54578789  0.95349467     0.93700
C26         C  0.25780458  0.45372209  0.04890467     0.92900
C27         C  0.25813887  0.54744863  0.04679341     0.85000
C28         C  0.25630942  0.45178116  0.95480067     0.91300
O29         O  0.53416742  0.72714378  0.03272794    -0.72500
O30         O  0.46260342  0.72697530  0.96210500    -0.73500
O31         O  0.53354638  0.72703031  0.96183015    -0.62100
O32         O  0.46325403  0.72653971  0.03350007    -0.70500
O33         O  0.46425198  0.78217496  0.03455673    -0.70000
O34         O  0.53296721  0.78256729  0.96100038    -0.61300
O35         O  0.46200127  0.78242693  0.96306795    -0.73800
O36         O  0.53468449  0.78254489  0.03189105    -0.72600
Cu37       Cu  0.49832154  0.72499185  0.99751083     1.04600
Cu38       Cu  0.49837543  0.78435083  0.99758609     1.04300
C39         C  0.54592986  0.75497833  0.04347594     0.93700
C40         C  0.45121007  0.75481948  0.95103296     0.92900
C41         C  0.54435527  0.75476879  0.94995791     0.85000
C42         C  0.45349198  0.75426945  0.04610561     0.91300
O43         O  0.78270186  0.46941459  0.96157733    -0.72500
O44         O  0.78301716  0.53766747  0.03595939    -0.73500
O45         O  0.78391286  0.46646461  0.03275291    -0.62100
O46         O  0.78200264  0.54043164  0.96453703    -0.70500
O47         O  0.72654948  0.53908156  0.96465762    -0.70000
O48         O  0.72842249  0.46652773  0.03385590    -0.61300
O49         O  0.72744762  0.53795392  0.03550891    -0.73800
O50         O  0.72725024  0.46818947  0.96306017    -0.72600
Cu51       Cu  0.78487927  0.50356123  0.99871812     1.04600
Cu52       Cu  0.72552768  0.50293537  0.99936579     1.04300
C53         C  0.75487035  0.45808053  0.95050258     0.93700
C54         C  0.75518984  0.54864435  0.04732767     0.92900
C55         C  0.75633588  0.45454427  0.04382166     0.85000
C56         C  0.75395459  0.55121174  0.95351915     0.91300
O57         O  0.22485836  0.03555835  0.46575612    -0.72500
O58         O  0.22555309  0.96453059  0.53657583    -0.73500
O59         O  0.22665349  0.03563714  0.53624090    -0.62100
O60         O  0.22413881  0.96427555  0.46595880    -0.70500
O61         O  0.27961754  0.96276430  0.46553609    -0.70000
O62         O  0.28200964  0.03593429  0.53394030    -0.61300
O63         O  0.28107966  0.96476046  0.53646784    -0.73800
O64         O  0.28037557  0.03373961  0.46307538    -0.72600
Cu65       Cu  0.22338396  0.00000775  0.50115602     1.04600
Cu66       Cu  0.28273249  0.99927012  0.49971441     1.04300
C67         C  0.25243396  0.04574029  0.45317689     0.93700
C68         C  0.25335212  0.95363115  0.54798604     0.92900
C69         C  0.25477203  0.04733667  0.54610731     0.85000
C70         C  0.25145681  0.95185588  0.45497307     0.91300
O71         O  0.03484859  0.77221534  0.46176163    -0.72500
O72         O  0.96499494  0.77266460  0.53386880    -0.73500
O73         O  0.03587613  0.77047039  0.53248922    -0.62100
O74         O  0.96339957  0.77396552  0.46294786    -0.70500
O75         O  0.96183780  0.71858644  0.46201181    -0.70000
O76         O  0.03440988  0.71501948  0.53126007    -0.61300
O77         O  0.96338620  0.71717312  0.53316871    -0.73800
O78         O  0.03318232  0.71666957  0.46007127    -0.72600
Cu79       Cu  0.99982188  0.77421929  0.49773849     1.04600
Cu80       Cu  0.99813499  0.71491757  0.49653314     1.04300
C81         C  0.04549242  0.74449492  0.44986545     0.93700
C82         C  0.95333507  0.74507366  0.54526863     0.92900
C83         C  0.04668466  0.74216473  0.54293292     0.85000
C84         C  0.95074708  0.74674482  0.45165970     0.91300
O85         O  0.76658130  0.96805819  0.46201983    -0.72500
O86         O  0.76926640  0.03737878  0.53511859    -0.73500
O87         O  0.76815805  0.96605651  0.53282364    -0.62100
O88         O  0.76765358  0.03929553  0.46411744    -0.70500
O89         O  0.71237896  0.04073750  0.46610334    -0.70000
O90         O  0.71269942  0.96594811  0.53335101    -0.61300
O91         O  0.71379054  0.03697677  0.53707085    -0.73800
O92         O  0.71108219  0.96975386  0.46236136    -0.72600
Cu93       Cu  0.76984761  0.00268839  0.49848435     1.04600
Cu94       Cu  0.71056982  0.00339754  0.49977409     1.04300
C95         C  0.73840366  0.95819900  0.45045085     0.93700
C96         C  0.74186777  0.04782736  0.54791681     0.92900
C97         C  0.74055883  0.95406891  0.54368175     0.85000
C98         C  0.73990888  0.05171709  0.45410727     0.91300
O99         O  0.03342682  0.28136201  0.46865490    -0.72500
O100        O  0.96132223  0.27726012  0.53841786    -0.73500
O101        O  0.03244498  0.27757715  0.53969308    -0.62100
O102        O  0.96236248  0.28116515  0.46749386    -0.70500
O103        O  0.96139124  0.22554938  0.46608196    -0.70000
O104        O  0.03394552  0.22215363  0.53576773    -0.61300
O105        O  0.96262820  0.22185851  0.53679638    -0.73800
O106        O  0.03272221  0.22609140  0.46472266    -0.72600
Cu107      Cu  0.99740705  0.28125306  0.50368424     1.04600
Cu108      Cu  0.99770395  0.22198066  0.50074302     1.04300
C109        C  0.04431366  0.25447728  0.45522584     0.93700
C110        C  0.95040527  0.24890411  0.54869809     0.92900
C111        C  0.04457775  0.24937537  0.54886580     0.85000
C112        C  0.95044457  0.25383276  0.45579421     0.91300
C113        C  0.24918786  0.27448648  0.22640892     0.02800
C114        C  0.27225886  0.24765130  0.22623936     0.02700
C115        C  0.27060331  0.22327339  0.25145997    -0.17800
C116        C  0.24620012  0.22496714  0.27661246     0.02800
C117        C  0.22300335  0.25173057  0.27669314     0.02700
C118        C  0.22462560  0.27612258  0.25143401    -0.17800
H119        H  0.20687015  0.29667356  0.25142273     0.04800
H120        H  0.28853643  0.20287176  0.25158390     0.04800
C121        C  0.72691655  0.25142777  0.22292198     0.02800
C122        C  0.75347630  0.27477881  0.22096897     0.02700
C123        C  0.77825133  0.27484231  0.24584709    -0.17800
C124        C  0.77691386  0.25222695  0.27274063     0.02800
C125        C  0.75056451  0.22855350  0.27421429     0.02700
C126        C  0.72588362  0.22840402  0.24934378    -0.17800
H127        H  0.70566464  0.21026552  0.25060555     0.04800
H128        H  0.79848694  0.29294515  0.24450526     0.04800
C129        C  0.72629826  0.24717409  0.78103322     0.02800
C130        C  0.75026950  0.27320651  0.77894371     0.02700
C131        C  0.77391304  0.27292809  0.75306959    -0.17800
C132        C  0.77391181  0.24741687  0.72894432     0.02800
C133        C  0.74910875  0.22213380  0.73016586     0.02700
C134        C  0.72565295  0.22218402  0.75627640    -0.17800
H135        H  0.70684427  0.20258205  0.75741750     0.04800
H136        H  0.79249588  0.29273674  0.75169732     0.04800
C137        C  0.72232295  0.75198606  0.22340366     0.02800
C138        C  0.74844067  0.72820926  0.22440971     0.02700
C139        C  0.77228574  0.72994566  0.25008781    -0.17800
C140        C  0.77057730  0.75503942  0.27464713     0.02800
C141        C  0.74482815  0.77933116  0.27309671     0.02700
C142        C  0.72084411  0.77735026  0.24762272    -0.17800
H143        H  0.70103569  0.79588354  0.24643155     0.04800
H144        H  0.79209926  0.71141878  0.25117801     0.04800
C145        C  0.72395950  0.75002449  0.77275874     0.02800
C146        C  0.74939628  0.72551807  0.77173676     0.02700
C147        C  0.77384724  0.72690330  0.74665677    -0.17800
C148        C  0.77346846  0.75237668  0.72250746     0.02800
C149        C  0.74781261  0.77681334  0.72320982     0.02700
C150        C  0.72327407  0.77526741  0.74833376    -0.17800
H151        H  0.70334542  0.79369781  0.74876208     0.04800
H152        H  0.79348232  0.70815486  0.74609750     0.04800
C153        C  0.25677614  0.72501339  0.22699107     0.02800
C154        C  0.27993549  0.75178472  0.22784946     0.02700
C155        C  0.27694300  0.77645833  0.25256241    -0.17800
C156        C  0.25117066  0.77495431  0.27633096     0.02800
C157        C  0.22797568  0.74823598  0.27555533     0.02700
C158        C  0.23096162  0.72351049  0.25080701    -0.17800
H159        H  0.21296797  0.70315843  0.24990556     0.04800
H160        H  0.29501053  0.79674908  0.25355023     0.04800
C161        C  0.26957928  0.75034780  0.77619074     0.02800
C162        C  0.24598506  0.72399741  0.77526784     0.02700
C163        C  0.22222421  0.72301986  0.74954495    -0.17800
C164        C  0.22169764  0.74766300  0.72449690     0.02800
C165        C  0.24477527  0.77466178  0.72598783     0.02700
C166        C  0.26863131  0.77546697  0.75171766    -0.17800
H167        H  0.28685445  0.79563869  0.75252007     0.04800
H168        H  0.20430136  0.70258009  0.74873499     0.04800
C169        C  0.27831003  0.24958955  0.77236037     0.02800
C170        C  0.25462817  0.27587070  0.77292765     0.02700
C171        C  0.22941460  0.27701617  0.74838630    -0.17800
C172        C  0.22793298  0.25288355  0.72282019     0.02800
C173        C  0.25257211  0.22746565  0.72174422     0.02700
C174        C  0.27723281  0.22589322  0.74658877    -0.17800
H175        H  0.29576316  0.20605663  0.74585045     0.04800
H176        H  0.21047504  0.29641480  0.74961320     0.04800
C177        C  0.07067109  0.24851301  0.57520054    -0.11500
C178        C  0.09795986  0.22601420  0.57409518     0.04000
C179        C  0.12226532  0.22675791  0.59936522    -0.12000
C180        C  0.11987270  0.24942529  0.62607567     0.18800
C181        C  0.09256932  0.27166967  0.62733852    -0.09100
C182        C  0.06842182  0.27120824  0.60197697    -0.02000
H183        H  0.14348752  0.20997253  0.59788799     0.05400
C184        C  0.14677470  0.25044211  0.65160197     0.20800
H185        H  0.04754793  0.28846796  0.60339649     0.10500
C186        C  0.16806003  0.27843606  0.65302984    -0.15400
C187        C  0.19420157  0.28004446  0.67632190     0.03500
C188        C  0.19953886  0.25317092  0.69866992    -0.10700
C189        C  0.17774594  0.22548084  0.69760420    -0.00800
C190        C  0.15178239  0.22379382  0.67416944    -0.05900
H191        H  0.16449660  0.29900132  0.63566421     0.06500
H192        H  0.18099679  0.20499088  0.71509001     0.09900
Br193      Br  0.08674211  0.30250575  0.66368406    -0.05600
Br194      Br  0.10486990  0.19546614  0.53763953    -0.02600
Br195      Br  0.22244837  0.31894572  0.67552601     0.00300
Br196      Br  0.12340378  0.18494518  0.67444546    -0.04100
C197        C  0.07057894  0.25580744  0.42872360    -0.11500
C198        C  0.08083136  0.28607622  0.41296401     0.04000
C199        C  0.10578332  0.28543633  0.38834424    -0.12000
C200        C  0.12059508  0.25524206  0.37850159     0.18800
C201        C  0.11051589  0.22516605  0.39382759    -0.09100
C202        C  0.08587818  0.22561509  0.41868027    -0.02000
H203        H  0.11337321  0.30863368  0.37638986     0.05400
C204        C  0.14634898  0.25555980  0.35197245     0.20800
H205        H  0.07874667  0.20206934  0.43018804     0.10500
C206        C  0.17904008  0.26577873  0.35975854    -0.15400
C207        C  0.20417230  0.26545545  0.33534627     0.03500
C208        C  0.19673085  0.25448465  0.30269038    -0.10700
C209        C  0.16369347  0.24573621  0.29459076    -0.00800
C210        C  0.13858785  0.24602068  0.31897785    -0.05900
H211        H  0.18501155  0.27389793  0.38492088     0.06500
H212        H  0.15754918  0.23814124  0.26931126     0.09900
Br213      Br  0.12983790  0.18289440  0.38156865    -0.05600
Br214      Br  0.06155395  0.32922320  0.42225400    -0.02600
Br215      Br  0.24780692  0.28157873  0.34728052     0.00300
Br216      Br  0.09404514  0.23334061  0.30620346    -0.04100
C217        C  0.92427218  0.25493645  0.42972783    -0.11500
C218        C  0.89574896  0.23407221  0.43115358     0.04000
C219        C  0.87245277  0.23454439  0.40501130    -0.12000
C220        C  0.87702449  0.25559695  0.37724796     0.18800
C221        C  0.90499004  0.27713015  0.37623900    -0.09100
C222        C  0.92824913  0.27677344  0.40243790    -0.02000
H223        H  0.85060454  0.21844777  0.40633482     0.05400
C224        C  0.85219465  0.25485339  0.34978046     0.20800
H225        H  0.95001521  0.29297010  0.40104696     0.10500
C226        C  0.83113440  0.28252655  0.34482482    -0.15400
C227        C  0.80689433  0.28230088  0.31955879     0.03500
C228        C  0.80313775  0.25379672  0.29900921    -0.10700
C229        C  0.82461268  0.22634179  0.30365994    -0.00800
C230        C  0.84895573  0.22667033  0.32881507    -0.05900
H231        H  0.83344839  0.30430218  0.36084804     0.06500
H232        H  0.82256652  0.20464908  0.28751571     0.09900
Br233      Br  0.91324422  0.30626450  0.33890227    -0.05600
Br234      Br  0.88632022  0.20600464  0.46904172    -0.02600
Br235      Br  0.77899117  0.32118461  0.31485061     0.00300
Br236      Br  0.87801428  0.18861505  0.33285170    -0.04100
C237        C  0.79978187  0.24795464  0.70243459    -0.11500
C238        C  0.83382619  0.24245441  0.70995586     0.04000
C239        C  0.85759041  0.24273041  0.68428569    -0.12000
C240        C  0.84798565  0.24884341  0.65113781     0.18800
C241        C  0.81411416  0.25477174  0.64362219    -0.09100
C242        C  0.79028127  0.25431636  0.66923009    -0.02000
H243        H  0.88368441  0.23825076  0.69017324     0.05400
C244        C  0.87374631  0.24903515  0.62476018     0.20800
H245        H  0.76428205  0.25916263  0.66327224     0.10500
C246        C  0.88087453  0.21930969  0.60766432    -0.15400
C247        C  0.90539340  0.21841116  0.58266311     0.03500
C248        C  0.92370460  0.24789356  0.57468089    -0.10700
C249        C  0.91610574  0.27768633  0.59203363    -0.00800
C250        C  0.89140924  0.27840501  0.61677792    -0.05900
H251        H  0.86713512  0.19667208  0.61376587     0.06500
H252        H  0.92951410  0.30066441  0.58653298     0.09900
Br253      Br  0.79954679  0.26401920  0.59885400    -0.05600
Br254      Br  0.84908771  0.23401028  0.75470907    -0.02600
Br255      Br  0.91108519  0.17620492  0.56022973     0.00300
Br256      Br  0.88242368  0.32004214  0.63903138    -0.04100
C257        C  0.74266821  0.07302706  0.57507440    -0.11500
C258        C  0.72017125  0.07169608  0.60232739     0.04000
C259        C  0.72113446  0.09660525  0.62696033    -0.12000
C260        C  0.74432527  0.12292619  0.62511411     0.18800
C261        C  0.76709468  0.12411343  0.59828581    -0.09100
C262        C  0.76622239  0.09922125  0.57359937    -0.02000
H263        H  0.70395768  0.09525258  0.64790017     0.05400
C264        C  0.74500752  0.14831313  0.65200770     0.20800
H265        H  0.78366971  0.10064401  0.55289171     0.10500
C266        C  0.76716993  0.14412482  0.67887466    -0.15400
C267        C  0.76816947  0.16744143  0.70499810     0.03500
C268        C  0.74713074  0.19572878  0.70418346    -0.10700
C269        C  0.72448365  0.19955981  0.67762005    -0.00800
C270        C  0.72326665  0.17606140  0.65163877    -0.05900
H271        H  0.78353751  0.12249237  0.67962072     0.06500
H272        H  0.70806318  0.22115180  0.67689186     0.09900
Br273      Br  0.79939799  0.15954257  0.59426609    -0.05600
Br274      Br  0.68926177  0.03529796  0.60864630    -0.02600
Br275      Br  0.79768295  0.15900832  0.74180397     0.00300
Br276      Br  0.69188490  0.18289243  0.61598470    -0.04100
C277        C  0.74018043  0.07885619  0.42849167    -0.11500
C278        C  0.71084997  0.09035564  0.41204326     0.04000
C279        C  0.71324946  0.11525610  0.38745002    -0.12000
C280        C  0.74423682  0.12908880  0.37865757     0.18800
C281        C  0.77326673  0.11846828  0.39537709    -0.09100
C282        C  0.77111870  0.09354237  0.41985954    -0.02000
H283        H  0.69080615  0.12358232  0.37469232     0.05400
C284        C  0.74576329  0.15435763  0.35172465     0.20800
H285        H  0.79393939  0.08572721  0.43222350     0.10500
C286        C  0.73383105  0.18684387  0.35781732    -0.15400
C287        C  0.73497070  0.21131649  0.33274894     0.03500
C288        C  0.74840265  0.20336437  0.30120384    -0.10700
C289        C  0.75949966  0.17066231  0.29484835    -0.00800
C290        C  0.75824271  0.14616493  0.31982023    -0.05900
H291        H  0.72358623  0.19311553  0.38211074     0.06500
H292        H  0.76928031  0.16426248  0.27039422     0.09900
Br293      Br  0.81629192  0.13778264  0.38601630    -0.05600
Br294      Br  0.66667411  0.07316818  0.42054943    -0.02600
Br295      Br  0.71685714  0.25477210  0.34218559     0.00300
Br296      Br  0.77288375  0.10167509  0.30898103    -0.04100
C297        C  0.74228540  0.80691852  0.29775993    -0.11500
C298        C  0.76470641  0.83421365  0.29738217     0.04000
C299        C  0.76246029  0.85900832  0.32201971    -0.12000
C300        C  0.73770499  0.85732269  0.34684693     0.18800
C301        C  0.71432661  0.83090716  0.34631540    -0.09100
C302        C  0.71660871  0.80608067  0.32171444    -0.02000
H303        H  0.78013792  0.87964786  0.32190922     0.05400
C304        C  0.73738919  0.88280149  0.37363706     0.20800
H305        H  0.69868644  0.78565816  0.32165339     0.10500
C306        C  0.71514127  0.90989465  0.37172727    -0.15400
C307        C  0.71499319  0.93476988  0.39646859     0.03500
C308        C  0.73757412  0.93273079  0.42360429    -0.10700
C309        C  0.75989117  0.90558882  0.42527391    -0.00800
C310        C  0.75972336  0.88061804  0.40073298    -0.05900
H311        H  0.69808755  0.91183980  0.35073739     0.06500
H312        H  0.77716118  0.90348245  0.44607604     0.09900
Br313      Br  0.67968349  0.82723310  0.37933121    -0.05600
Br314      Br  0.79760211  0.83955599  0.26283887    -0.02600
Br315      Br  0.68502699  0.97194511  0.39067586     0.00300
Br316      Br  0.78973425  0.84339887  0.40554031    -0.04100
C317        C  0.74065610  0.92678944  0.56886431    -0.11500
C318        C  0.76710415  0.90334034  0.57135364     0.04000
C319        C  0.76649350  0.87893076  0.59647354    -0.12000
C320        C  0.73972220  0.87690126  0.61901973     0.18800
C321        C  0.71297250  0.89962148  0.61615265    -0.09100
C322        C  0.71359434  0.92426389  0.59125003    -0.02000
H323        H  0.78698840  0.86126168  0.59837665     0.05400
C324        C  0.74052680  0.85118068  0.64560969     0.20800
H325        H  0.69294208  0.94178080  0.58966762     0.10500
C326        C  0.74486774  0.86119921  0.67894741    -0.15400
C327        C  0.74708826  0.83744893  0.70461440     0.03500
C328        C  0.74517441  0.80296729  0.69696821    -0.10700
C329        C  0.74017400  0.79308033  0.66365540    -0.00800
C330        C  0.73812575  0.81680823  0.63802398    -0.05900
H331        H  0.74693027  0.88762309  0.68493789     0.06500
H332        H  0.73768991  0.76673658  0.65756565     0.09900
Br333      Br  0.67471429  0.89739579  0.64511078    -0.05600
Br334      Br  0.80380975  0.90164796  0.54033475    -0.02600
Br335      Br  0.75379836  0.85351490  0.74934130     0.00300
Br336      Br  0.73127444  0.80110876  0.59319536    -0.04100
C337        C  0.20019464  0.74619610  0.30006658    -0.11500
C338        C  0.20126697  0.72356800  0.32711180     0.04000
C339        C  0.17536079  0.72326756  0.35070953    -0.12000
C340        C  0.14805289  0.74511884  0.34760382     0.18800
C341        C  0.14673848  0.76744980  0.32033412    -0.09100
C342        C  0.17279395  0.76796540  0.29688365    -0.02000
H343        H  0.17660425  0.70609712  0.37169564     0.05400
C344        C  0.12159420  0.74477371  0.37349822     0.20800
H345        H  0.17175730  0.78544599  0.27614272     0.10500
C346        C  0.12389148  0.76701050  0.40051650    -0.15400
C347        C  0.09957153  0.76710114  0.42575766     0.03500
C348        C  0.07215691  0.74468487  0.42408258    -0.10700
C349        C  0.07026239  0.72206806  0.39720019    -0.00800
C350        C  0.09463808  0.72208485  0.37197629    -0.05900
H351        H  0.14491877  0.78413469  0.40212872     0.06500
H352        H  0.04948997  0.70465318  0.39553565     0.09900
Br353      Br  0.10973205  0.79741290  0.31418401    -0.05600
Br354      Br  0.23818590  0.69352540  0.33338319    -0.02600
Br355      Br  0.10656949  0.79669712  0.46300695     0.00300
Br356      Br  0.09009225  0.69104494  0.33564901    -0.04100
C357        C  0.07295720  0.74125307  0.56922649    -0.11500
C358        C  0.09287660  0.71256457  0.57564845     0.04000
C359        C  0.11651150  0.71319486  0.60149611    -0.12000
C360        C  0.12106194  0.74194228  0.62109852     0.18800
C361        C  0.10213718  0.77083276  0.61412262    -0.09100
C362        C  0.07823432  0.77021453  0.58863818    -0.02000
H363        H  0.13157987  0.69112924  0.60628361     0.05400
C364        C  0.14651004  0.74172382  0.64790979     0.20800
H365        H  0.06368553  0.79265515  0.58406350     0.10500
C366        C  0.18039595  0.73833714  0.63936522    -0.15400
C367        C  0.20522454  0.73906983  0.66401498     0.03500
C368        C  0.19630482  0.74471789  0.69765548    -0.10700
C369        C  0.16229508  0.74615069  0.70634052    -0.00800
C370        C  0.13743342  0.74426829  0.68185278    -0.05900
H371        H  0.18750015  0.73481077  0.61344630     0.06500
H372        H  0.15508569  0.74886363  0.73233039     0.09900
Br373      Br  0.10898793  0.81221161  0.63773280    -0.05600
Br374      Br  0.09082872  0.67224450  0.54942828    -0.02600
Br375      Br  0.25027281  0.72899399  0.65087365     0.00300
Br376      Br  0.09153639  0.74371075  0.69608235    -0.04100
C377        C  0.92767068  0.74598035  0.57218864    -0.11500
C378        C  0.92324657  0.71954604  0.59544458     0.04000
C379        C  0.89826424  0.72182236  0.61994671    -0.12000
C380        C  0.87740087  0.75001441  0.62193075     0.18800
C381        C  0.88212078  0.77661000  0.59929493    -0.09100
C382        C  0.90705568  0.77447258  0.57481129    -0.02000
H383        H  0.89504509  0.70144359  0.63761735     0.05400
C384        C  0.85049468  0.75091215  0.64739757     0.20800
H385        H  0.90990094  0.79505433  0.55732556     0.10500
C386        C  0.85305482  0.77298113  0.67463192    -0.15400
C387        C  0.82806802  0.77397848  0.69920471     0.03500
C388        C  0.80009250  0.75260034  0.69673420    -0.10700
C389        C  0.79770339  0.73036248  0.66970015    -0.00800
C390        C  0.82244234  0.72961746  0.64496340    -0.05900
H391        H  0.87465710  0.78929087  0.67685411     0.06500
H392        H  0.77626833  0.71380542  0.66766236     0.09900
Br393      Br  0.85418674  0.81573211  0.59998619    -0.05600
Br394      Br  0.95126726  0.68044697  0.59651350    -0.02600
Br395      Br  0.83367993  0.80394209  0.73626189     0.00300
Br396      Br  0.81631970  0.69996920  0.60769978    -0.04100
C397        C  0.92330114  0.74822523  0.42640114    -0.11500
C398        C  0.90505919  0.71952965  0.41587888     0.04000
C399        C  0.88028285  0.72264010  0.39132352    -0.12000
C400        C  0.87260505  0.75380901  0.37710800     0.18800
C401        C  0.88951774  0.78258620  0.38846918    -0.09100
C402        C  0.91476593  0.77958731  0.41253412    -0.02000
H403        H  0.86682696  0.70048131  0.38319710     0.05400
C404        C  0.84647705  0.75551596  0.35088766     0.20800
H405        H  0.92765741  0.80211490  0.42048649     0.10500
C406        C  0.81352690  0.74622956  0.35893052    -0.15400
C407        C  0.78853724  0.74568075  0.33441415     0.03500
C408        C  0.79619116  0.75537541  0.30139654    -0.10700
C409        C  0.82925980  0.76385376  0.29317369    -0.00800
C410        C  0.85439725  0.76376893  0.31750502    -0.05900
H411        H  0.80742079  0.73866656  0.38425194     0.06500
H412        H  0.83561164  0.77010567  0.26756031     0.09900
Br413      Br  0.87813051  0.82669740  0.37295168    -0.05600
Br414      Br  0.91108901  0.67533963  0.43418504    -0.02600
Br415      Br  0.74527917  0.72860785  0.34651413     0.00300
Br416      Br  0.89944736  0.77273652  0.30335029    -0.04100
C417        C  0.25185967  0.07210314  0.42748394    -0.11500
C418        C  0.26715905  0.06757976  0.39607463     0.04000
C419        C  0.26579600  0.09325167  0.37223371    -0.12000
C420        C  0.24969929  0.12362087  0.37945764     0.18800
C421        C  0.23463440  0.12823829  0.41091255    -0.09100
C422        C  0.23548115  0.10238583  0.43454136    -0.02000
H423        H  0.27725356  0.08952791  0.34795033     0.05400
C424        C  0.24856759  0.15002300  0.35367428     0.20800
H425        H  0.22375817  0.10610610  0.45870487     0.10500
C426        C  0.22380662  0.14861700  0.32886334    -0.15400
C427        C  0.22262023  0.17278441  0.30350053     0.03500
C428        C  0.24627646  0.19901199  0.30306208    -0.10700
C429        C  0.27136461  0.20000578  0.32759552    -0.00800
C430        C  0.27253061  0.17587182  0.35293215    -0.05900
H431        H  0.20564859  0.12840276  0.32901746     0.06500
H432        H  0.29010723  0.21966248  0.32700197     0.09900
Br433      Br  0.21302464  0.16950335  0.42265202    -0.05600
Br434      Br  0.28842386  0.02619455  0.38396648    -0.02600
Br435      Br  0.18977103  0.16764917  0.26890968     0.00300
Br436      Br  0.30745366  0.17879344  0.38572982    -0.04100
C437        C  0.25531777  0.07458997  0.57132235    -0.11500
C438        C  0.28405676  0.08243302  0.59061631     0.04000
C439        C  0.28264999  0.10826265  0.61419322    -0.12000
C440        C  0.25316808  0.12647257  0.61914132     0.18800
C441        C  0.22472340  0.11915199  0.59989497    -0.09100
C442        C  0.22591847  0.09340427  0.57629393    -0.02000
H443        H  0.30454320  0.11385214  0.62920977     0.05400
C444        C  0.25236896  0.15235034  0.64529426     0.20800
H445        H  0.20366749  0.08821658  0.56169158     0.10500
C446        C  0.26438156  0.18457297  0.63806733    -0.15400
C447        C  0.26473320  0.20936360  0.66275164     0.03500
C448        C  0.25290187  0.20189820  0.69509442    -0.10700
C449        C  0.24135769  0.16949724  0.70239412    -0.00800
C450        C  0.24081427  0.14479798  0.67767171    -0.05900
H451        H  0.27371180  0.19032052  0.61326210     0.06500
H452        H  0.23245211  0.16356476  0.72731347     0.09900
Br453      Br  0.18378142  0.14366522  0.60515975    -0.05600
Br454      Br  0.32561113  0.05837605  0.58777988    -0.02600
Br455      Br  0.28293677  0.25245421  0.65164518     0.00300
Br456      Br  0.22438632  0.10104681  0.68912503    -0.04100
C457        C  0.24569887  0.80158247  0.70040165    -0.11500
C458        C  0.21966447  0.82515076  0.69696292     0.04000
C459        C  0.22137695  0.84949339  0.67176795    -0.12000
C460        C  0.24897689  0.85103354  0.65006777     0.18800
C461        C  0.27553706  0.82825441  0.65433218    -0.09100
C462        C  0.27386446  0.80404656  0.67955410    -0.02000
H463        H  0.20128688  0.86755988  0.66929936     0.05400
C464        C  0.25004395  0.87707715  0.62371988     0.20800
H465        H  0.29434229  0.78648094  0.68245086     0.10500
C466        C  0.27427366  0.90251249  0.62552280    -0.15400
C467        C  0.27615630  0.92747273  0.60097089     0.03500
C468        C  0.25303486  0.92754526  0.57425935    -0.10700
C469        C  0.22857516  0.90222298  0.57272966    -0.00800
C470        C  0.22712994  0.87695841  0.59697205    -0.05900
H471        H  0.29176723  0.90296390  0.64623686     0.06500
H472        H  0.21084839  0.90172128  0.55221296     0.09900
Br473      Br  0.31397966  0.82829215  0.62553219    -0.05600
Br474      Br  0.18266059  0.82679284  0.72747963    -0.02600
Br475      Br  0.30962151  0.96162853  0.60644038     0.00300
Br476      Br  0.19443211  0.84201967  0.59169070    -0.04100
C477        C  0.25076163  0.92505142  0.42951286    -0.11500
C478        C  0.22468405  0.90107556  0.42793940     0.04000
C479        C  0.22507066  0.87654078  0.40299750    -0.12000
C480        C  0.25116177  0.87522743  0.37966352     0.18800
C481        C  0.27741300  0.89864857  0.38143456    -0.09100
C482        C  0.27709958  0.92326139  0.40625567    -0.02000
H483        H  0.20504628  0.85820263  0.40190514     0.05400
C484        C  0.25058268  0.84921398  0.35360366     0.20800
H485        H  0.29741111  0.94127822  0.40715403     0.10500
C486        C  0.24093603  0.85795958  0.32103741    -0.15400
C487        C  0.24050624  0.83392672  0.29563647     0.03500
C488        C  0.24999421  0.80070658  0.30276917    -0.10700
C489        C  0.25929676  0.79192209  0.33543928    -0.00800
C490        C  0.25949910  0.81588759  0.36088046    -0.05900
H491        H  0.23370921  0.88353990  0.31543256     0.06500
H492        H  0.26679383  0.76643850  0.34104361     0.09900
Br493      Br  0.31444090  0.89747797  0.35086933    -0.05600
Br494      Br  0.18902750  0.89886831  0.46012458    -0.02600
Br495      Br  0.22599793  0.84729797  0.25189701     0.00300
Br496      Br  0.27294871  0.80231507  0.40491606    -0.04100
C497        C  0.75490506  0.30041596  0.19419718    -0.11500
C498        C  0.78050137  0.30049800  0.16992506     0.04000
C499        C  0.78111859  0.32546786  0.14530358    -0.12000
C500        C  0.75671244  0.35073500  0.14471045     0.18800
C501        C  0.73127102  0.35073038  0.16910535    -0.09100
C502        C  0.73063886  0.32578356  0.19364216    -0.02000
H503        H  0.80066359  0.32518200  0.12651284     0.05400
C504        C  0.75776195  0.37663007  0.11824840     0.20800
H505        H  0.71135017  0.32642324  0.21266599     0.10500
C506        C  0.73245591  0.37711674  0.09398927    -0.15400
C507        C  0.73174556  0.40191130  0.06926539     0.03500
C508        C  0.75679911  0.42697081  0.06858715    -0.10700
C509        C  0.78275645  0.42575917  0.09230124    -0.00800
C510        C  0.78334785  0.40092013  0.11705074    -0.05900
H511        H  0.71311225  0.35805708  0.09435190     0.06500
H512        H  0.80225138  0.44467485  0.09210104     0.09900
Br513      Br  0.69754921  0.38491831  0.17068570    -0.05600
Br514      Br  0.81482607  0.26690440  0.16908315    -0.02600
Br515      Br  0.69696901  0.39881898  0.03620306     0.00300
Br516      Br  0.81871945  0.40206698  0.14951807    -0.04100
C517        C  0.75488255  0.57426617  0.07398631    -0.11500
C518        C  0.77289929  0.57001145  0.10403657     0.04000
C519        C  0.77175457  0.59489194  0.12876359    -0.12000
C520        C  0.75295471  0.62418457  0.12394770     0.18800
C521        C  0.73506165  0.62850032  0.09393404    -0.09100
C522        C  0.73585170  0.60349262  0.06938372    -0.02000
H523        H  0.78538188  0.59130275  0.15192118     0.05400
C524        C  0.75220436  0.65002450  0.15044944     0.20800
H525        H  0.72194733  0.60709669  0.04638572     0.10500
C526        C  0.77634282  0.67559745  0.15032361    -0.15400
C527        C  0.77571207  0.70098174  0.17450046     0.03500
C528        C  0.75065229  0.70095205  0.19929699    -0.10700
C529        C  0.72662484  0.67523182  0.19951396    -0.00800
C530        C  0.72727886  0.64985305  0.17535139    -0.05900
H531        H  0.79544418  0.67602829  0.13108783     0.06500
H532        H  0.70719190  0.67506062  0.21841842     0.09900
Br533      Br  0.70956934  0.66834121  0.08543328    -0.05600
Br534      Br  0.79763669  0.52983766  0.11334060    -0.02600
Br535      Br  0.80850463  0.73606887  0.17178381     0.00300
Br536      Br  0.69352715  0.61564768  0.17698077    -0.04100
C537        C  0.75145169  0.69881323  0.79722177    -0.11500
C538        C  0.77393735  0.70130241  0.82418107     0.04000
C539        C  0.77446805  0.67630389  0.84867962    -0.12000
C540        C  0.75296161  0.64856903  0.84652944     0.18800
C541        C  0.73093143  0.64573003  0.81918586    -0.09100
C542        C  0.73051827  0.67068336  0.79460821    -0.02000
H543        H  0.79150224  0.67860676  0.86964552     0.05400
C544        C  0.75332042  0.62338600  0.87355772     0.20800
H545        H  0.71371039  0.66824587  0.77349435     0.10500
C546        C  0.72653783  0.62224743  0.89611488    -0.15400
C547        C  0.72631787  0.59943765  0.92268733     0.03500
C548        C  0.75340971  0.57699823  0.92687064    -0.10700
C549        C  0.78037842  0.57851141  0.90428134    -0.00800
C550        C  0.78046388  0.60140694  0.87778715    -0.05900
H551        H  0.70585565  0.63949070  0.89317421     0.06500
H552        H  0.80124907  0.56137047  0.90680955     0.09900
Br553      Br  0.70145090  0.60804662  0.81418442    -0.05600
Br554      Br  0.80412897  0.73846976  0.82859550    -0.02600
Br555      Br  0.68916825  0.60185200  0.95313244     0.00300
Br556      Br  0.81757172  0.60104117  0.84730962    -0.04100
C557        C  0.75429670  0.43256966  0.92351887    -0.11500
C558        C  0.77853154  0.43172286  0.89772287     0.04000
C559        C  0.77740618  0.40628742  0.87356380    -0.12000
C560        C  0.75217409  0.38183824  0.87425890     0.18800
C561        C  0.72746803  0.38316926  0.89925953    -0.09100
C562        C  0.72865343  0.40834970  0.92357773    -0.02000
H563        H  0.79616602  0.40568106  0.85399297     0.05400
C564        C  0.75224674  0.35468811  0.84913220     0.20800
H565        H  0.70969101  0.40864383  0.94295881     0.10500
C566        C  0.77136259  0.32582374  0.85513381    -0.15400
C567        C  0.77106862  0.29910447  0.83245003     0.03500
C568        C  0.75124370  0.30100288  0.80341738    -0.10700
C569        C  0.73276069  0.33020815  0.79702057    -0.00800
C570        C  0.73305842  0.35693633  0.81968825    -0.05900
H571        H  0.78640412  0.32404265  0.87761477     0.06500
H572        H  0.71795397  0.33211604  0.77439694     0.09900
Br573      Br  0.69190595  0.35079385  0.90122845    -0.05600
Br574      Br  0.81234188  0.46565899  0.89268259    -0.02600
Br575      Br  0.79841576  0.26075873  0.84176096     0.00300
Br576      Br  0.70702643  0.39601657  0.80955736    -0.04100
C577        C  0.57254671  0.75491660  0.06952204    -0.11500
C578        C  0.58787211  0.78467209  0.08168594     0.04000
C579        C  0.61269007  0.78263791  0.10625743    -0.12000
C580        C  0.62285412  0.75165094  0.11913345     0.18800
C581        C  0.60781370  0.72210796  0.10734044    -0.09100
C582        C  0.58300140  0.72388398  0.08278528    -0.02000
H583        H  0.62417510  0.80545721  0.11550508     0.05400
C584        C  0.64877317  0.75084263  0.14535740     0.20800
H585        H  0.57188911  0.70069263  0.07409234     0.10500
C586        C  0.63951033  0.74287998  0.17825329    -0.15400
C587        C  0.66324539  0.74295494  0.20391151     0.03500
C588        C  0.69673813  0.75129044  0.19676033    -0.10700
C589        C  0.70606331  0.75900277  0.16380940    -0.00800
C590        C  0.68234921  0.75879983  0.13812062    -0.05900
H591        H  0.61371117  0.73667076  0.18394822     0.06500
H592        H  0.73184181  0.76528093  0.15812296     0.09900
Br593      Br  0.62092290  0.67874195  0.12352583    -0.05600
Br594      Br  0.57708124  0.82914776  0.06650051    -0.02600
Br595      Br  0.64910344  0.73053087  0.24809347     0.00300
Br596      Br  0.69696480  0.76885633  0.09349772    -0.04100
C597        C  0.30787242  0.75381776  0.20358976    -0.11500
C598        C  0.30817350  0.77810501  0.17799198     0.04000
C599        C  0.33368802  0.77785668  0.15404654    -0.12000
C600        C  0.35907938  0.75366679  0.15524168     0.18800
C601        C  0.35937075  0.72997936  0.18135373    -0.09100
C602        C  0.33380986  0.73015949  0.20528293    -0.02000
H603        H  0.33329836  0.79607798  0.13393007     0.05400
C604        C  0.38391832  0.75260531  0.12795216     0.20800
H605        H  0.33386686  0.71151032  0.22499822     0.10500
C606        C  0.41263534  0.77272829  0.12980182    -0.15400
C607        C  0.43570653  0.77341720  0.10343517     0.03500
C608        C  0.42992750  0.75393447  0.07452697    -0.10700
C609        C  0.40155135  0.73318334  0.07314627    -0.00800
C610        C  0.37851300  0.73257051  0.09950575    -0.05900
H611        H  0.41710808  0.78788200  0.15184347     0.06500
H612        H  0.39699773  0.71784018  0.05125092     0.09900
Br613      Br  0.39377788  0.69667698  0.18481325    -0.05600
Br614      Br  0.27327163  0.81077269  0.17355201    -0.02600
Br615      Br  0.47569639  0.79960292  0.10911751     0.00300
Br616      Br  0.33966726  0.70451076  0.09553884    -0.04100
C617        C  0.42525258  0.75478199  0.92434719    -0.11500
C618        C  0.41771941  0.78354219  0.90482764     0.04000
C619        C  0.39218747  0.78215070  0.88090016    -0.12000
C620        C  0.37432621  0.75247600  0.87530223     0.18800
C621        C  0.38253228  0.72352848  0.89355394    -0.09100
C622        C  0.40756792  0.72488076  0.91795674    -0.02000
H623        H  0.38639344  0.80430101  0.86628710     0.05400
C624        C  0.34733053  0.75218775  0.85012683     0.20800
H625        H  0.41299761  0.70238065  0.93214097     0.10500
C626        C  0.35343570  0.73815698  0.81857758    -0.15400
C627        C  0.32834657  0.73762297  0.79420165     0.03500
C628        C  0.29662355  0.75114258  0.80136104    -0.10700
C629        C  0.29068088  0.76568150  0.83271386    -0.00800
C630        C  0.31573599  0.76611502  0.85714733    -0.05900
H631        H  0.37779181  0.72766434  0.81293564     0.06500
H632        H  0.26645328  0.77651183  0.83823007     0.09900
Br633      Br  0.35986085  0.68175558  0.88619994    -0.09600
Br634      Br  0.44203491  0.82507572  0.90764100    -0.02600
Br635      Br  0.33848815  0.71854662  0.75137384     0.00300
Br636      Br  0.30560903  0.78522483  0.89997710    -0.04100
C637        C  0.57074365  0.75422572  0.92386897    -0.11500
C638        C  0.57390227  0.77955448  0.89926147     0.04000
C639        C  0.59927265  0.77740763  0.87518228    -0.12000
C640        C  0.62175882  0.75045242  0.87502725     0.18800
C641        C  0.61903500  0.72550535  0.89976183    -0.09100
C642        C  0.59354826  0.72736660  0.92365680    -0.02000
H643        H  0.60131304  0.79674578  0.85622300     0.05400
C644        C  0.64817296  0.74929361  0.84914355     0.20800
H645        H  0.59194127  0.70793444  0.94255408     0.10500
C646        C  0.67476429  0.77221820  0.85085429    -0.15400
C647        C  0.69969937  0.77261115  0.82628744     0.03500
C648        C  0.69810470  0.74997126  0.79932649    -0.10700
C649        C  0.67129532  0.72728918  0.79740373    -0.00800
C650        C  0.64652977  0.72663767  0.82216287    -0.05900
H651        H  0.67610742  0.78985134  0.87141796     0.06500
H652        H  0.66948035  0.71023491  0.77641972     0.09900
Br653      Br  0.65026542  0.68914199  0.90265650    -0.05600
Br654      Br  0.54362134  0.81676212  0.89579173    -0.02600
Br655      Br  0.73546716  0.80439833  0.83065794     0.00300
Br656      Br  0.61045104  0.69516519  0.81753631    -0.04100
C657        C  0.25839504  0.69913273  0.20055228    -0.11500
C658        C  0.26820483  0.66604722  0.20776309     0.04000
C659        C  0.26887940  0.64207005  0.18224264    -0.12000
C660        C  0.26085912  0.65079774  0.14912774     0.18800
C661        C  0.25185694  0.68426634  0.14186904    -0.09100
C662        C  0.25049594  0.70799129  0.16755391    -0.02000
H663        H  0.27572787  0.61649103  0.18826104     0.05400
C664        C  0.26076072  0.62449897  0.12284094     0.20800
H665        H  0.24337860  0.73355300  0.16175888     0.10500
C666        C  0.23107101  0.61812129  0.10525772    -0.15400
C667        C  0.22974001  0.59401890  0.07991283     0.03500
C668        C  0.25837626  0.57440508  0.07256153    -0.10700
C669        C  0.28808736  0.58074416  0.09046038    -0.00800
C670        C  0.28953416  0.60558275  0.11517954    -0.05900
H671        H  0.20876047  0.63243400  0.11099221     0.06500
H672        H  0.31046149  0.56636479  0.08522139     0.09900
Br673      Br  0.24229484  0.69932120  0.09724182    -0.05600
Br674      Br  0.28235300  0.65301408  0.25173966    -0.02600
Br675      Br  0.18843179  0.59134211  0.05536820     0.00300
Br676      Br  0.33180355  0.61354198  0.13667316    -0.04100
C677        C  0.25049943  0.30113250  0.20070458    -0.11500
C678        C  0.23218264  0.29849799  0.17076957     0.04000
C679        C  0.23499863  0.32355749  0.14639725    -0.12000
C680        C  0.25608618  0.35126746  0.15141373     0.18800
C681        C  0.27407231  0.35410134  0.18155766    -0.09100
C682        C  0.27093780  0.32924300  0.20606514    -0.02000
H683        H  0.22068428  0.32148173  0.12347615     0.05400
C684        C  0.25748790  0.37780779  0.12566335     0.20800
H685        H  0.28474157  0.33165068  0.22925910     0.10500
C686        C  0.23115589  0.40081410  0.12371220    -0.15400
C687        C  0.23101962  0.42606153  0.09942541     0.03500
C688        C  0.25758728  0.42833236  0.07606265    -0.10700
C689        C  0.28426011  0.40544816  0.07851258    -0.00800
C690        C  0.28430500  0.38029001  0.10299210    -0.05900
H691        H  0.21066264  0.39924234  0.14142508     0.06500
H692        H  0.30487484  0.40669210  0.06093367     0.09900
Br693      Br  0.30275623  0.39165476  0.19044453    -0.05600
Br694      Br  0.20272694  0.26142592  0.16249176    -0.02600
Br695      Br  0.19463671  0.45750208  0.10111144     0.00300
Br696      Br  0.32100075  0.34939116  0.10416008    -0.04100
C697        C  0.25577798  0.42520626  0.92857134    -0.11500
C698        C  0.22627709  0.40751535  0.91948888     0.04000
C699        C  0.22754090  0.38296011  0.89453439    -0.12000
C700        C  0.25753627  0.37533643  0.87809834     0.18800
C701        C  0.28681104  0.39298786  0.88669481    -0.09100
C702        C  0.28580141  0.41740975  0.91179259    -0.02000
H703        H  0.20483178  0.36970244  0.88776547     0.05400
C704        C  0.25739224  0.34946655  0.85153148     0.20800
H705        H  0.30872761  0.43055015  0.91795220     0.10500
C706        C  0.26363264  0.35900505  0.81831380    -0.15400
C707        C  0.26298429  0.33535216  0.79251034     0.03500
C708        C  0.25520821  0.30163319  0.79963426    -0.10700
C709        C  0.24885098  0.29209461  0.83283600    -0.00800
C710        C  0.25016521  0.31560899  0.85874341    -0.05900
H711        H  0.26924295  0.38495385  0.81248784     0.06500
H712        H  0.24311788  0.26617959  0.83863959     0.09900
Br713      Br  0.32890272  0.38438798  0.86520687    -0.05600
Br714      Br  0.18325280  0.41447173  0.93988611    -0.02600
Br715      Br  0.27459864  0.34996502  0.74830315     0.00300
Br716      Br  0.24322402  0.30003147  0.90364500    -0.04100
C717        C  0.25525900  0.57166910  0.92680357    -0.11500
C718        C  0.28164885  0.59470536  0.92101427     0.04000
C719        C  0.27847237  0.61897362  0.89590549    -0.12000
C720        C  0.24952940  0.62086020  0.87627203     0.18800
C721        C  0.22335254  0.59798101  0.88169520    -0.09100
C722        C  0.22627893  0.57377383  0.90683295    -0.02000
H723        H  0.29858772  0.63672246  0.89181547     0.05400
C724        C  0.24717291  0.64702779  0.85032447     0.20800
H725        H  0.20576373  0.55638035  0.91061968     0.10500
C726        C  0.25718681  0.63958235  0.81757147    -0.15400
C727        C  0.25649180  0.66425467  0.79269436     0.03500
C728        C  0.24599650  0.69700341  0.80065754    -0.10700
C729        C  0.23519668  0.70416624  0.83326180    -0.00800
C730        C  0.23581558  0.67947308  0.85809143    -0.05900
H731        H  0.26577690  0.61456877  0.81144491     0.06500
H732        H  0.22627168  0.72904323  0.83939495     0.09900
Br733      Br  0.18312779  0.59915108  0.85550589    -0.05600
Br734      Br  0.32191186  0.59599874  0.94724642    -0.02600
Br735      Br  0.27056387  0.65221646  0.74842975     0.00300
Br736      Br  0.22085014  0.69097429  0.90219129    -0.04100
C737        C  0.42301020  0.24212215  0.07290461    -0.11500
C738        C  0.39611442  0.26507158  0.07182614     0.04000
C739        C  0.37170717  0.26443789  0.09694298    -0.12000
C740        C  0.37375386  0.24159760  0.12351694     0.18800
C741        C  0.40035464  0.21857503  0.12455570    -0.09100
C742        C  0.42455306  0.21879164  0.09924795    -0.02000
H743        H  0.35099235  0.28183331  0.09578950     0.05400
C744        C  0.34829289  0.24271335  0.15029117     0.20800
H745        H  0.44509754  0.20112601  0.10057815     0.10500
C746        C  0.32246230  0.21884407  0.15080055    -0.15400
C747        C  0.29768453  0.21982932  0.17557718     0.03500
C748        C  0.29862424  0.24501648  0.20028122    -0.10700
C749        C  0.32498770  0.26828811  0.20017492    -0.00800
C750        C  0.34947205  0.26755054  0.17522829    -0.05900
H751        H  0.32145662  0.19959920  0.13171193     0.06500
H752        H  0.32649569  0.28716702  0.21955882     0.09900
Br753      Br  0.40519489  0.18727413  0.16068986    -0.05600
Br754      Br  0.39030067  0.29667445  0.03601172    -0.02600
Br755      Br  0.26277359  0.18675391  0.17430045     0.00300
Br756      Br  0.38426318  0.30072364  0.17633634    -0.04100
C757        C  0.70013781  0.25020506  0.19746636    -0.11500
C758        C  0.70389665  0.23131375  0.16799950     0.04000
C759        C  0.67802444  0.23047039  0.14443834    -0.12000
C760        C  0.64824877  0.24816883  0.14999818     0.18800
C761        C  0.64427087  0.26665613  0.17968766    -0.09100
C762        C  0.67011595  0.26744199  0.20327189    -0.02000
H763        H  0.68106934  0.21593166  0.12176432     0.05400
C764        C  0.62148737  0.24690675  0.12464528     0.20800
H765        H  0.66687480  0.28161510  0.22614662     0.10500
C766        C  0.59795220  0.22086122  0.12576611    -0.15400
C767        C  0.57208870  0.21905025  0.10220844     0.03500
C768        C  0.56965921  0.24367150  0.07684598    -0.10700
C769        C  0.59321832  0.26991589  0.07611615    -0.00800
C770        C  0.61907254  0.27155383  0.09963057    -0.05900
H771        H  0.59955912  0.20204258  0.14527615     0.06500
H772        H  0.59187148  0.28898536  0.05684158     0.09900
Br773      Br  0.60392021  0.29096716  0.18891984    -0.05600
Br774      Br  0.74347353  0.20556850  0.15950661    -0.02600
Br775      Br  0.53989706  0.18359761  0.10743353     0.00300
Br776      Br  0.65079232  0.30762507  0.09661119    -0.04100
C777        C  0.57584751  0.23942177  0.93443299    -0.11500
C778        C  0.60332919  0.26147444  0.93784538     0.04000
C779        C  0.62864719  0.26176402  0.91364160    -0.12000
C780        C  0.62730955  0.24003874  0.88614338     0.18800
C781        C  0.60075617  0.21695350  0.88351092    -0.09100
C782        C  0.57530106  0.21674530  0.90758570    -0.02000
H783        H  0.64941486  0.27908356  0.91617938     0.05400
C784        C  0.65316482  0.24257184  0.85983142     0.20800
H785        H  0.55457880  0.19939768  0.90485075     0.10500
C786        C  0.67906502  0.21890763  0.85860897    -0.15400
C787        C  0.70320524  0.22021288  0.83323966     0.03500
C788        C  0.70164874  0.24559140  0.80869790    -0.10700
C789        C  0.67575869  0.26927909  0.81005653    -0.00800
C790        C  0.65171911  0.26802522  0.83545743    -0.05900
H791        H  0.68033539  0.19926447  0.87731063     0.06500
H792        H  0.67394413  0.28850560  0.79099897     0.09900
Br793      Br  0.59772614  0.18616350  0.84679281    -0.05600
Br794      Br  0.60865179  0.29020124  0.97601303    -0.02600
Br795      Br  0.73789398  0.18696641  0.83321388     0.00300
Br796      Br  0.61668015  0.30086890  0.83532468    -0.04100
C797        C  0.42749159  0.23898414  0.92718103    -0.11500
C798        C  0.42568609  0.21338951  0.90275355     0.04000
C799        C  0.40134903  0.21499919  0.87754499    -0.12000
C800        C  0.37847228  0.24159774  0.87624800     0.18800
C801        C  0.37941613  0.26638749  0.90124295    -0.09100
C802        C  0.40403170  0.26521332  0.92607458    -0.02000
H803        H  0.40055742  0.19565282  0.85854234     0.05400
C804        C  0.35372594  0.24308293  0.84874286     0.20800
H805        H  0.40445463  0.28465944  0.94498735     0.10500
C806        C  0.32729125  0.21990740  0.84812017    -0.15400
C807        C  0.30282156  0.22141529  0.82311008     0.03500
C808        C  0.30454242  0.24652392  0.79834466    -0.10700
C809        C  0.33131969  0.26928444  0.79856737    -0.00800
C810        C  0.35600297  0.26753152  0.82333585    -0.05900
H811        H  0.32543834  0.20092288  0.86744030     0.06500
H812        H  0.33301885  0.28840042  0.77936047     0.09900
Br813      Br  0.34668642  0.30147865  0.90326707    -0.05600
Br814      Br  0.45668261  0.17665338  0.90108160    -0.02600
Br815      Br  0.26675629  0.18960691  0.82449212     0.00300
Br816      Br  0.39281984  0.29839676  0.82096813    -0.04100
loop_ 
_geom_bond_atom_site_label_1 
_geom_bond_atom_site_label_2 
_geom_bond_distance 
_geom_bond_site_symmetry_2 
_ccdc_geom_bond_type 
O1           Cu9   2.009   1_556  S
O1           C11   1.278       .  A
O2           Cu9   2.011       .  S
O2           C12   1.278       .  A
O3           Cu9   2.006       .  S
O3           C13   1.278       .  A
O4           Cu9   2.010   1_556  S
O4           C14   1.278       .  A
O5          Cu10   2.013   1_556  S
O5           C14   1.278       .  A
O6          Cu10   2.009       .  S
O6           C13   1.278       .  A
O7          Cu10   2.010       .  S
O7           C12   1.278       .  A
O8          Cu10   2.012   1_556  S
O8           C11   1.278       .  A
Cu9         Cu10   2.371       .  S
C11         C777   1.477       .  S
C12         C737   1.479       .  S
C13         C768   1.480       .  S
C14         C797   1.483       .  S
O15         Cu23   2.000   1_556  S
O15          C25   1.277       .  A
O16         Cu23   1.999       .  S
O16          C26   1.276       .  A
O17         Cu23   2.004       .  S
O17          C27   1.276       .  A
O18         Cu23   2.004   1_556  S
O18          C28   1.276       .  A
O19         Cu24   2.018   1_556  S
O19          C28   1.280       .  A
O20         Cu24   2.018       .  S
O20          C27   1.279       .  A
O21         Cu24   2.020       .  S
O21          C26   1.279       .  A
O22         Cu24   2.017   1_556  S
O22          C25   1.278       .  A
Cu23        Cu24   2.365       .  S
C25         C717   1.484       .  S
C26         C688   1.484       .  S
C27         C668   1.490       .  S
C28         C697   1.492       .  S
O29         Cu37   2.010   1_554  S
O29          C39   1.279       .  A
O30         Cu37   2.011       .  S
O30          C40   1.279       .  A
O31         Cu37   2.005       .  S
O31          C41   1.278       .  A
O32         Cu37   2.009   1_554  S
O32          C42   1.277       .  A
O33         Cu38   2.012   1_554  S
O33          C42   1.278       .  A
O34         Cu38   2.013       .  S
O34          C41   1.278       .  A
O35         Cu38   2.005       .  S
O35          C40   1.276       .  A
O36         Cu38   1.997   1_554  S
O36          C39   1.275       .  A
Cu37        Cu38   2.367       .  S
C39         C577   1.488       .  S
C40         C617   1.488       .  S
C41         C637   1.483       .  S
C42         C608   1.475       .  S
O43         Cu51   2.017       .  S
O43          C53   1.279       .  A
O44         Cu51   2.019   1_554  S
O44          C54   1.279       .  A
O45         Cu51   2.009   1_554  S
O45          C55   1.278       .  A
O46         Cu51   2.009       .  S
O46          C56   1.279       .  A
O47         Cu52   2.000       .  S
O47          C56   1.276       .  A
O48         Cu52   2.004   1_554  S
O48          C55   1.277       .  A
O49         Cu52   2.012   1_554  S
O49          C54   1.277       .  A
O50         Cu52   2.009       .  S
O50          C53   1.278       .  A
Cu51        Cu52   2.371       .  S
C53         C557   1.484       .  S
C54         C517   1.477       .  S
C55         C508   1.479       .  S
C56         C548   1.480       .  S
O57         Cu65   2.003       .  S
O57          C67   1.276       .  A
O58         Cu65   2.002   1_565  S
O58          C68   1.277       .  A
O59         Cu65   2.001       .  S
O59          C69   1.278       .  A
O60         Cu65   2.004   1_565  S
O60          C70   1.277       .  A
O61         Cu66   2.001       .  S
O61          C70   1.277       .  A
O62         Cu66   2.004   1_545  S
O62          C69   1.276       .  A
O63         Cu66   2.013       .  S
O63          C68   1.278       .  A
O64         Cu66   2.010   1_545  S
O64          C67   1.278       .  A
Cu65        Cu66   2.371   1_545  S
C67         C417   1.469       .  S
C68         C468   1.477       .  S
C69         C437   1.483       .  S
C70         C477   1.477       .  S
O71         Cu79   2.008   1_455  S
O71          C81   1.277       .  A
O72         Cu79   2.006       .  S
O72          C82   1.278       .  A
O73         Cu79   2.007   1_455  S
O73          C83   1.279       .  A
O74         Cu79   2.013       .  S
O74          C84   1.279       .  A
O75         Cu80   2.007       .  S
O75          C84   1.276       .  A
O76         Cu80   2.007   1_455  S
O76          C83   1.276       .  A
O77         Cu80   2.020       .  S
O77          C82   1.279       .  A
O78         Cu80   2.022   1_455  S
O78          C81   1.279       .  A
Cu79        Cu80   2.366       .  S
C81         C348   1.482       .  S
C82         C377   1.487       .  S
C83         C357   1.486       .  S
C84         C397   1.492       .  S
O85         Cu93   2.013   1_565  S
O85          C95   1.278       .  A
O86         Cu93   2.016       .  S
O86          C96   1.278       .  A
O87         Cu93   2.004   1_565  S
O87          C97   1.277       .  A
O88         Cu93   2.005       .  S
O88          C98   1.279       .  A
O89         Cu94   2.007       .  S
O89          C98   1.276       .  A
O90         Cu94   2.009   1_565  S
O90          C97   1.278       .  A
O91         Cu94   2.009       .  S
O91          C96   1.277       .  A
O92         Cu94   2.010   1_565  S
O92          C95   1.277       .  A
Cu93        Cu94   2.368       .  S
C95         C308   1.479       .  S
C96         C257   1.480       .  S
C97         C317   1.481       .  S
C98         C277   1.489       .  S
O99        Cu107   2.008   1_455  S
O99         C109   1.276       .  A
O100       Cu107   2.007       .  S
O100        C110   1.279       .  A
O101       Cu107   2.013   1_455  S
O101        C111   1.278       .  A
O102       Cu107   2.013       .  S
O102        C112   1.278       .  A
O103       Cu108   2.011       .  S
O103        C112   1.278       .  A
O104       Cu108   2.014   1_455  S
O104        C111   1.278       .  A
O105       Cu108   2.010       .  S
O105        C110   1.277       .  A
O106       Cu108   2.014   1_455  S
O106        C109   1.280       .  A
Cu107      Cu108   2.366       .  S
C109        C197   1.492       .  S
C110        C248   1.489       .  S
C111        C177   1.482       .  S
C112        C217   1.477       .  S
C113        C677   1.478       .  S
C113        C114   1.413       .  A
C113        C118   1.403       .  A
C114        C748   1.482       .  S
C114        C115   1.401       .  A
C115        C116   1.402       .  A
C115        H120   1.085       .  S
C116        C428   1.479       .  S
C116        C117   1.414       .  A
C117        C208   1.481       .  S
C117        C118   1.403       .  A
C118        H119   1.084       .  S
C121        C757   1.477       .  S
C121        C122   1.413       .  A
C121        C126   1.399       .  A
C122        C497   1.480       .  S
C122        C123   1.403       .  A
C123        C124   1.403       .  A
C123        H128   1.084       .  S
C124        C228   1.484       .  S
C124        C125   1.414       .  A
C125        C288   1.476       .  S
C125        C126   1.400       .  A
C126        H127   1.084       .  S
C129        C788   1.482       .  S
C129        C130   1.414       .  A
C129        C134   1.405       .  A
C130        C568   1.480       .  S
C130        C131   1.401       .  A
C131        C132   1.402       .  A
C131        H136   1.084       .  S
C132        C237   1.480       .  S
C132        C133   1.413       .  A
C133        C268   1.482       .  S
C133        C134   1.402       .  A
C134        H135   1.084       .  S
C137        C588   1.476       .  S
C137        C138   1.411       .  A
C137        C142   1.402       .  A
C138        C528   1.483       .  S
C138        C139   1.402       .  A
C139        C140   1.404       .  A
C139        H144   1.084       .  S
C140        C408   1.480       .  S
C140        C141   1.415       .  A
C141        C297   1.481       .  S
C141        C142   1.400       .  A
C142        H143   1.084       .  S
C145        C648   1.481       .  S
C145        C146   1.411       .  A
C145        C150   1.402       .  A
C146        C537   1.475       .  S
C146        C147   1.401       .  A
C147        C148   1.401       .  A
C147        H152   1.084       .  S
C148        C388   1.481       .  S
C148        C149   1.415       .  A
C149        C328   1.482       .  S
C149        C150   1.404       .  A
C150        H151   1.084       .  S
C153        C657   1.479       .  S
C153        C154   1.412       .  A
C153        C158   1.404       .  A
C154        C597   1.480       .  S
C154        C155   1.400       .  A
C155        C156   1.402       .  A
C155        H160   1.084       .  S
C156        C488   1.475       .  S
C156        C157   1.411       .  A
C157        C337   1.482       .  S
C157        C158   1.403       .  A
C158        H159   1.084       .  S
C161        C628   1.477       .  S
C161        C162   1.411       .  A
C161        C166   1.400       .  A
C162        C728   1.479       .  S
C162        C163   1.400       .  A
C163        C164   1.402       .  A
C163        H168   1.085       .  S
C164        C368   1.481       .  S
C164        C165   1.418       .  A
C165        C457   1.482       .  S
C165        C166   1.402       .  A
C166        H167   1.085       .  S
C169        C808   1.480       .  S
C169        C170   1.413       .  A
C169        C174   1.399       .  A
C170        C708   1.482       .  S
C170        C171   1.407       .  A
C171        C172   1.406       .  A
C171        H176   1.084       .  S
C172        C188   1.489       .  S
C172        C173   1.414       .  A
C173        C448   1.475       .  S
C173        C174   1.400       .  A
C174        H175   1.084       .  S
C177        C178   1.413       .  A
C177        C182   1.405       .  A
C178        C179   1.401       .  A
C178       Br194   1.920       .  S
C179        C180   1.403       .  A
C179        H183   1.082       .  S
C180        C184   1.482       .  S
C180        C181   1.408       .  A
C181        C182   1.399       .  A
C181       Br193   1.919       .  S
C182        H185   1.083       .  S
C184        C186   1.403       .  A
C184        C190   1.408       .  A
C186        C187   1.400       .  A
C186        H191   1.083       .  S
C187        C188   1.411       .  A
C187       Br195   1.917       .  S
C188        C189   1.406       .  A
C189        C190   1.399       .  A
C189        H192   1.083       .  S
C190       Br196   1.918       .  S
C197        C198   1.421       .  A
C197        C202   1.410       .  A
C198        C199   1.401       .  A
C198       Br214   1.922       .  S
C199        C200   1.399       .  A
C199        H203   1.084       .  S
C200        C204   1.477       .  S
C200        C201   1.405       .  A
C201        C202   1.398       .  A
C201       Br213   1.919       .  S
C202        H205   1.083       .  S
C204        C206   1.402       .  A
C204        C210   1.407       .  A
C206        C207   1.400       .  A
C206        H211   1.083       .  S
C207        C208   1.409       .  A
C207       Br215   1.917       .  S
C208        C209   1.402       .  A
C209        C210   1.399       .  A
C209        H212   1.083       .  S
C210       Br216   1.918       .  S
C217        C218   1.411       .  A
C217        C222   1.404       .  A
C218        C219   1.399       .  A
C218       Br234   1.919       .  S
C219        C220   1.403       .  A
C219        H223   1.084       .  S
C220        C224   1.480       .  S
C220        C221   1.408       .  A
C221        C222   1.400       .  A
C221       Br233   1.919       .  S
C222        H225   1.084       .  S
C224        C226   1.402       .  A
C224        C230   1.408       .  A
C226        C227   1.399       .  A
C226        H231   1.083       .  S
C227        C228   1.411       .  A
C227       Br235   1.920       .  S
C228        C229   1.404       .  A
C229        C230   1.399       .  A
C229        H232   1.083       .  S
C230       Br236   1.918       .  S
C237        C238   1.410       .  A
C237        C242   1.403       .  A
C238        C239   1.398       .  A
C238       Br254   1.920       .  S
C239        C240   1.401       .  A
C239        H243   1.084       .  S
C240        C244   1.473       .  S
C240        C241   1.406       .  A
C241        C242   1.398       .  A
C241       Br253   1.917       .  S
C242        H245   1.083       .  S
C244        C246   1.398       .  A
C244        C250   1.403       .  A
C246        C247   1.400       .  A
C246        H251   1.083       .  S
C247        C248   1.420       .  A
C247       Br255   1.922       .  S
C248        C249   1.410       .  A
C249        C250   1.397       .  A
C249        H252   1.083       .  S
C250       Br256   1.919       .  S
C257        C258   1.413       .  A
C257        C262   1.406       .  A
C258        C259   1.400       .  A
C258       Br274   1.921       .  S
C259        C260   1.401       .  A
C259        H263   1.083       .  S
C260        C264   1.478       .  S
C260        C261   1.407       .  A
C261        C262   1.401       .  A
C261       Br273   1.919       .  S
C262        H265   1.083       .  S
C264        C266   1.402       .  A
C264        C270   1.408       .  A
C266        C267   1.399       .  A
C266        H271   1.083       .  S
C267        C268   1.408       .  A
C267       Br275   1.915       .  S
C268        C269   1.403       .  A
C269        C270   1.400       .  A
C269        H272   1.083       .  S
C270       Br276   1.918       .  S
C277        C278   1.420       .  A
C277        C282   1.409       .  A
C278        C279   1.400       .  A
C278       Br294   1.922       .  S
C279        C280   1.399       .  A
C279        H283   1.084       .  S
C280        C284   1.475       .  S
C280        C281   1.404       .  A
C281        C282   1.397       .  A
C281       Br293   1.919       .  S
C282        H285   1.083       .  S
C284        C286   1.402       .  A
C284        C290   1.408       .  A
C286        C287   1.399       .  A
C286        H291   1.083       .  S
C287        C288   1.407       .  A
C287       Br295   1.916       .  S
C288        C289   1.401       .  A
C289        C290   1.397       .  A
C289        H292   1.084       .  S
C290       Br296   1.919       .  S
C297        C298   1.409       .  A
C297        C302   1.403       .  A
C298        C299   1.399       .  A
C298       Br314   1.917       .  S
C299        C300   1.402       .  A
C299        H303   1.084       .  S
C300        C304   1.477       .  S
C300        C301   1.407       .  A
C301        C302   1.399       .  A
C301       Br313   1.917       .  S
C302        H305   1.083       .  S
C304        C306   1.402       .  A
C304        C310   1.406       .  A
C306        C307   1.401       .  A
C306        H311   1.084       .  S
C307        C308   1.413       .  A
C307       Br315   1.920       .  S
C308        C309   1.405       .  A
C309        C310   1.398       .  A
C309        H312   1.084       .  S
C310       Br316   1.918       .  S
C317        C318   1.415       .  A
C317        C322   1.407       .  A
C318        C319   1.398       .  A
C318       Br334   1.921       .  S
C319        C320   1.401       .  A
C319        H323   1.083       .  S
C320        C324   1.477       .  S
C320        C321   1.406       .  A
C321        C322   1.398       .  A
C321       Br333   1.919       .  S
C322        H325   1.083       .  S
C324        C326   1.402       .  A
C324        C330   1.407       .  A
C326        C327   1.398       .  A
C326        H331   1.084       .  S
C327        C328   1.411       .  A
C327       Br335   1.919       .  S
C328        C329   1.403       .  A
C329        C330   1.396       .  A
C329        H332   1.083       .  S
C330       Br336   1.918       .  S
C337        C338   1.408       .  A
C337        C342   1.404       .  A
C338        C339   1.400       .  A
C338       Br354   1.917       .  S
C339        C340   1.402       .  A
C339        H343   1.083       .  S
C340        C344   1.479       .  S
C340        C341   1.408       .  A
C341        C342   1.401       .  A
C341       Br353   1.918       .  S
C342        H345   1.083       .  S
C344        C346   1.401       .  A
C344        C350   1.407       .  A
C346        C347   1.401       .  A
C346        H351   1.084       .  S
C347        C348   1.414       .  A
C347       Br355   1.921       .  S
C348        C349   1.406       .  A
C349        C350   1.402       .  A
C349        H352   1.083       .  S
C350       Br356   1.917       .  S
C357        C358   1.418       .  A
C357        C362   1.408       .  A
C358        C359   1.400       .  A
C358       Br374   1.922       .  S
C359        C360   1.401       .  A
C359        H363   1.084       .  S
C360        C364   1.477       .  S
C360        C361   1.406       .  A
C361        C362   1.396       .  A
C361       Br373   1.921       .  S
C362        H365   1.083       .  S
C364        C366   1.403       .  A
C364        C370   1.408       .  A
C366        C367   1.398       .  A
C366        H371   1.084       .  S
C367        C368   1.410       .  A
C367       Br375   1.918       .  S
C368        C369   1.403       .  A
C369        C370   1.396       .  A
C369        H372   1.084       .  S
C370       Br376   1.919       .  S
C377        C378   1.416       .  A
C377        C382   1.408       .  A
C378        C379   1.401       .  A
C378       Br394   1.921       .  S
C379        C380   1.403       .  A
C379        H383   1.084       .  S
C380        C384   1.481       .  S
C380        C381   1.406       .  A
C381        C382   1.399       .  A
C381       Br393   1.919       .  S
C382        H385   1.083       .  S
C384        C386   1.404       .  A
C384        C390   1.408       .  A
C386        C387   1.401       .  A
C386        H391   1.083       .  S
C387        C388   1.408       .  A
C387       Br395   1.917       .  S
C388        C389   1.402       .  A
C389        C390   1.398       .  A
C389        H392   1.084       .  S
C390       Br396   1.918       .  S
C397        C398   1.420       .  A
C397        C402   1.410       .  A
C398        C399   1.399       .  A
C398       Br414   1.923       .  S
C399        C400   1.400       .  A
C399        H403   1.084       .  S
C400        C404   1.481       .  S
C400        C401   1.406       .  A
C401        C402   1.399       .  A
C401       Br413   1.920       .  S
C402        H405   1.083       .  S
C404        C406   1.404       .  A
C404        C410   1.410       .  A
C406        C407   1.399       .  A
C406        H411   1.084       .  S
C407        C408   1.408       .  A
C407       Br415   1.918       .  S
C408        C409   1.402       .  A
C409        C410   1.398       .  A
C409        H412   1.084       .  S
C410       Br416   1.919       .  S
C417        C418   1.408       .  A
C417        C422   1.403       .  A
C418        C419   1.399       .  A
C418       Br434   1.919       .  S
C419        C420   1.402       .  A
C419        H423   1.084       .  S
C420        C424   1.473       .  S
C420        C421   1.406       .  A
C421        C422   1.398       .  A
C421       Br433   1.918       .  S
C422        H425   1.084       .  S
C424        C426   1.402       .  A
C424        C430   1.406       .  A
C426        C427   1.399       .  A
C426        H431   1.084       .  S
C427        C428   1.409       .  A
C427       Br435   1.917       .  S
C428        C429   1.403       .  A
C429        C430   1.397       .  A
C429        H432   1.083       .  S
C430       Br436   1.918       .  S
C437        C438   1.418       .  A
C437        C442   1.409       .  A
C438        C439   1.398       .  A
C438       Br454   1.922       .  S
C439        C440   1.398       .  A
C439        H443   1.084       .  S
C440        C444   1.470       .  S
C440        C441   1.403       .  A
C441        C442   1.396       .  A
C441       Br453   1.918       .  S
C442        H445   1.083       .  S
C444        C446   1.401       .  A
C444        C450   1.406       .  A
C446        C447   1.397       .  A
C446        H451   1.083       .  S
C447        C448   1.408       .  A
C447       Br455   1.916       .  S
C448        C449   1.402       .  A
C449        C450   1.396       .  A
C449        H452   1.083       .  S
C450       Br456   1.918       .  S
C457        C458   1.409       .  A
C457        C462   1.403       .  A
C458        C459   1.400       .  A
C458       Br474   1.918       .  S
C459        C460   1.404       .  A
C459        H463   1.084       .  S
C460        C464   1.479       .  S
C460        C461   1.408       .  A
C461        C462   1.397       .  A
C461       Br473   1.919       .  S
C462        H465   1.084       .  S
C464        C466   1.403       .  A
C464        C470   1.407       .  A
C466        C467   1.399       .  A
C466        H471   1.084       .  S
C467        C468   1.412       .  A
C467       Br475   1.920       .  S
C468        C469   1.405       .  A
C469        C470   1.398       .  A
C469        H472   1.084       .  S
C470       Br476   1.920       .  S
C477        C478   1.414       .  A
C477        C482   1.406       .  A
C478        C479   1.398       .  A
C478       Br494   1.921       .  S
C479        C480   1.400       .  A
C479        H483   1.084       .  S
C480        C484   1.471       .  S
C480        C481   1.405       .  A
C481        C482   1.396       .  A
C481       Br493   1.919       .  S
C482        H485   1.084       .  S
C484        C486   1.402       .  A
C484        C490   1.406       .  A
C486        C487   1.397       .  A
C486        H491   1.084       .  S
C487        C488   1.407       .  A
C487       Br495   1.917       .  S
C488        C489   1.402       .  A
C489        C490   1.396       .  A
C489        H492   1.083       .  S
C490       Br496   1.918       .  S
C497        C498   1.409       .  A
C497        C502   1.402       .  A
C498        C499   1.399       .  A
C498       Br514   1.918       .  S
C499        C500   1.403       .  A
C499        H503   1.083       .  S
C500        C504   1.478       .  S
C500        C501   1.408       .  A
C501        C502   1.396       .  A
C501       Br513   1.919       .  S
C502        H505   1.083       .  S
C504        C506   1.401       .  A
C504        C510   1.408       .  A
C506        C507   1.398       .  A
C506        H511   1.083       .  S
C507        C508   1.413       .  A
C507       Br515   1.921       .  S
C508        C509   1.406       .  A
C509        C510   1.399       .  A
C509        H512   1.083       .  S
C510       Br516   1.919       .  S
C517        C518   1.411       .  A
C517        C522   1.404       .  A
C518        C519   1.402       .  A
C518       Br534   1.919       .  S
C519        C520   1.403       .  A
C519        H523   1.083       .  S
C520        C524   1.479       .  S
C520        C521   1.407       .  A
C521        C522   1.400       .  A
C521       Br533   1.918       .  S
C522        H525   1.084       .  S
C524        C526   1.402       .  A
C524        C530   1.408       .  A
C526        C527   1.400       .  A
C526        H531   1.083       .  S
C527        C528   1.409       .  A
C527       Br535   1.918       .  S
C528        C529   1.404       .  A
C529        C530   1.400       .  A
C529        H532   1.083       .  S
C530       Br536   1.917       .  S
C537        C538   1.406       .  A
C537        C542   1.402       .  A
C538        C539   1.397       .  A
C538       Br554   1.918       .  S
C539        C540   1.402       .  A
C539        H543   1.083       .  S
C540        C544   1.474       .  S
C540        C541   1.408       .  A
C541        C542   1.398       .  A
C541       Br553   1.918       .  S
C542        H545   1.083       .  S
C544        C546   1.400       .  A
C544        C550   1.405       .  A
C546        C547   1.398       .  A
C546        H551   1.082       .  S
C547        C548   1.415       .  A
C547       Br555   1.922       .  S
C548        C549   1.407       .  A
C549        C550   1.398       .  A
C549        H552   1.083       .  S
C550       Br556   1.919       .  S
C557        C558   1.415       .  A
C557        C562   1.407       .  A
C558        C559   1.402       .  A
C558       Br574   1.921       .  S
C559        C560   1.401       .  A
C559        H563   1.084       .  S
C560        C564   1.478       .  S
C560        C561   1.406       .  A
C561        C562   1.399       .  A
C561       Br573   1.920       .  S
C562        H565   1.083       .  S
C564        C566   1.403       .  A
C564        C570   1.407       .  A
C566        C567   1.400       .  A
C566        H571   1.083       .  S
C567        C568   1.407       .  A
C567       Br575   1.916       .  S
C568        C569   1.403       .  A
C569        C570   1.400       .  A
C569        H572   1.083       .  S
C570       Br576   1.917       .  S
C577        C578   1.421       .  A
C577        C582   1.409       .  A
C578        C579   1.398       .  A
C578       Br594   1.923       .  S
C579        C580   1.399       .  A
C579        H583   1.084       .  S
C580        C584   1.474       .  S
C580        C581   1.404       .  A
C581        C582   1.397       .  A
C581       Br593   1.919       .  S
C582        H585   1.083       .  S
C584        C586   1.402       .  A
C584        C590   1.408       .  A
C586        C587   1.397       .  A
C586        H591   1.084       .  S
C587        C588   1.407       .  A
C587       Br595   1.919       .  S
C588        C589   1.402       .  A
C589        C590   1.397       .  A
C589        H592   1.083       .  S
C590       Br596   1.919       .  S
C597        C598   1.408       .  A
C597        C602   1.404       .  A
C598        C599   1.398       .  A
C598       Br614   1.917       .  S
C599        C600   1.401       .  A
C599        H603   1.083       .  S
C600        C604   1.475       .  S
C600        C601   1.407       .  A
C601        C602   1.399       .  A
C601       Br613   1.917       .  S
C602        H605   1.083       .  S
C604        C606   1.401       .  A
C604        C610   1.407       .  A
C606        C607   1.400       .  A
C606        H611   1.084       .  S
C607        C608   1.412       .  A
C607       Br615   1.921       .  S
C608        C609   1.403       .  A
C609        C610   1.399       .  A
C609        H612   1.084       .  S
C610       Br616   1.918       .  S
C617        C618   1.419       .  A
C617        C622   1.409       .  A
C618        C619   1.399       .  A
C618       Br634   1.922       .  S
C619        C620   1.399       .  A
C619        H623   1.084       .  S
C620        C624   1.475       .  S
C620        C621   1.404       .  A
C621        C622   1.398       .  A
C621       Br633   1.918       .  S
C622        H625   1.083       .  S
C624        C626   1.402       .  A
C624        C630   1.408       .  A
C626        C627   1.398       .  A
C626        H631   1.083       .  S
C627        C628   1.407       .  A
C627       Br635   1.918       .  S
C628        C629   1.402       .  A
C629        C630   1.399       .  A
C629        H632   1.083       .  S
C630       Br636   1.918       .  S
C637        C638   1.415       .  A
C637        C642   1.407       .  A
C638        C639   1.400       .  A
C638       Br654   1.920       .  S
C639        C640   1.402       .  A
C639        H643   1.084       .  S
C640        C644   1.478       .  S
C640        C641   1.406       .  A
C641        C642   1.398       .  A
C641       Br653   1.917       .  S
C642        H645   1.083       .  S
C644        C646   1.402       .  A
C644        C650   1.409       .  A
C646        C647   1.399       .  A
C646        H651   1.084       .  S
C647        C648   1.408       .  A
C647       Br655   1.917       .  S
C648        C649   1.403       .  A
C649        C650   1.399       .  A
C649        H652   1.083       .  S
C650       Br656   1.919       .  S
C657        C658   1.406       .  A
C657        C662   1.401       .  A
C658        C659   1.399       .  A
C658       Br674   1.918       .  S
C659        C660   1.405       .  A
C659        H663   1.083       .  S
C660        C664   1.485       .  S
C660        C661   1.412       .  A
C661        C662   1.398       .  A
C661       Br673   1.920       .  S
C662        H665   1.083       .  S
C664        C666   1.402       .  A
C664        C670   1.409       .  A
C666        C667   1.398       .  A
C666        H671   1.084       .  S
C667        C668   1.417       .  A
C667       Br675   1.923       .  S
C668        C669   1.408       .  A
C669        C670   1.401       .  A
C669        H672   1.083       .  S
C670       Br676   1.921       .  S
C677        C678   1.407       .  A
C677        C682   1.402       .  A
C678        C679   1.399       .  A
C678       Br694   1.917       .  S
C679        C680   1.403       .  A
C679        H683   1.083       .  S
C680        C684   1.477       .  S
C680        C681   1.407       .  A
C681        C682   1.398       .  A
C681       Br693   1.918       .  S
C682        H685   1.083       .  S
C684        C686   1.399       .  A
C684        C690   1.406       .  A
C686        C687   1.398       .  A
C686        H691   1.084       .  S
C687        C688   1.416       .  A
C687       Br695   1.922       .  S
C688        C689   1.407       .  A
C689        C690   1.401       .  A
C689        H692   1.083       .  S
C690       Br696   1.917       .  S
C697        C698   1.420       .  A
C697        C702   1.409       .  A
C698        C699   1.399       .  A
C698       Br714   1.923       .  S
C699        C700   1.400       .  A
C699        H703   1.084       .  S
C700        C704   1.481       .  S
C700        C701   1.407       .  A
C701        C702   1.399       .  A
C701       Br713   1.919       .  S
C702        H705   1.083       .  S
C704        C706   1.403       .  A
C704        C710   1.410       .  A
C706        C707   1.399       .  A
C706        H711   1.083       .  S
C707        C708   1.408       .  A
C707       Br715   1.917       .  S
C708        C709   1.403       .  A
C709        C710   1.399       .  A
C709        H712   1.083       .  S
C710       Br716   1.919       .  S
C717        C718   1.416       .  A
C717        C722   1.409       .  A
C718        C719   1.399       .  A
C718       Br734   1.921       .  S
C719        C720   1.399       .  A
C719        H723   1.082       .  S
C720        C724   1.474       .  S
C720        C721   1.403       .  A
C721        C722   1.398       .  A
C721       Br733   1.918       .  S
C722        H725   1.083       .  S
C724        C726   1.401       .  A
C724        C730   1.407       .  A
C726        C727   1.398       .  A
C726        H731   1.083       .  S
C727        C728   1.409       .  A
C727       Br735   1.918       .  S
C728        C729   1.403       .  A
C729        C730   1.398       .  A
C729        H732   1.083       .  S
C730       Br736   1.918       .  S
C737        C738   1.413       .  A
C737        C742   1.406       .  A
C738        C739   1.400       .  A
C738       Br754   1.921       .  S
C739        C740   1.401       .  A
C739        H743   1.081       .  S
C740        C744   1.477       .  S
C740        C741   1.406       .  A
C741        C742   1.399       .  A
C741       Br753   1.918       .  S
C742        H745   1.083       .  S
C744        C746   1.403       .  A
C744        C750   1.407       .  A
C746        C747   1.401       .  A
C746        H751   1.083       .  S
C747        C748   1.410       .  A
C747       Br755   1.919       .  S
C748        C749   1.403       .  A
C749        C750   1.397       .  A
C749        H752   1.082       .  S
C750       Br756   1.918       .  S
C757        C758   1.407       .  A
C757        C762   1.402       .  A
C758        C759   1.399       .  A
C758       Br774   1.917       .  S
C759        C760   1.402       .  A
C759        H763   1.083       .  S
C760        C764   1.474       .  S
C760        C761   1.407       .  A
C761        C762   1.398       .  A
C761       Br773   1.918       .  S
C762        H765   1.083       .  S
C764        C766   1.401       .  A
C764        C770   1.405       .  A
C766        C767   1.400       .  A
C766        H771   1.084       .  S
C767        C768   1.414       .  A
C767       Br775   1.921       .  S
C768        C769   1.407       .  A
C769        C770   1.398       .  A
C769        H772   1.083       .  S
C770       Br776   1.919       .  S
C777        C778   1.412       .  A
C777        C782   1.404       .  A
C778        C779   1.400       .  A
C778       Br794   1.920       .  S
C779        C780   1.401       .  A
C779        H783   1.083       .  S
C780        C784   1.477       .  S
C780        C781   1.407       .  A
C781        C782   1.400       .  A
C781       Br793   1.918       .  S
C782        H785   1.084       .  S
C784        C786   1.402       .  A
C784        C790   1.407       .  A
C786        C787   1.400       .  A
C786        H791   1.083       .  S
C787        C788   1.410       .  A
C787       Br795   1.919       .  S
C788        C789   1.403       .  A
C789        C790   1.398       .  A
C789        H792   1.083       .  S
C790       Br796   1.918       .  S
C797        C798   1.415       .  A
C797        C802   1.406       .  A
C798        C799   1.402       .  A
C798       Br814   1.920       .  S
C799        C800   1.402       .  A
C799        H803   1.084       .  S
C800        C804   1.480       .  S
C800        C801   1.407       .  A
C801        C802   1.398       .  A
C801       Br813   1.918       .  S
C802        H805   1.084       .  S
C804        C806   1.402       .  A
C804        C810   1.410       .  A
C806        C807   1.399       .  A
C806        H811   1.083       .  S
C807        C808   1.409       .  A
C807       Br815   1.919       .  S
C808        C809   1.402       .  A
C809        C810   1.399       .  A
C809        H812   1.083       .  S
C810       Br816   1.919       .  S
