geometry optimzed in LAMMPS
_audit_creation_date              2020-11-30 
_audit_creation_method            'lammps2cif' 
_symmetry_space_group_name_H-M    'P1' 
_symmetry_Int_Tables_number       1 
_symmetry_cell_setting            triclinic 
loop_ 
_symmetry_equiv_pos_as_xyz 
  x,y,z 
_cell_length_a                    37.82747742829824 
_cell_length_b                    43.450720657701225 
_cell_length_c                    25.344835087436973 
_cell_angle_alpha                 89.71569105073118 
_cell_angle_beta                  90.42568627957989 
_cell_angle_gamma                 86.59965117771198 
loop_ 
_atom_site_label 
_atom_site_type_symbol 
_atom_site_fract_x 
_atom_site_fract_y 
_atom_site_fract_z 
_atom_site_charge 
Fe1        Fe  0.24535488  0.41415629  0.32970971     1.65780
Fe2        Fe  0.25653414  0.37541419  0.44355920     1.73250
Fe3        Fe  0.26945279  0.33677393  0.33095727     1.54420
O4          O  0.22804164  0.34366333  0.27527863    -0.82510
O5          O  0.30891697  0.36443706  0.44286570    -0.80810
O6          O  0.20896000  0.39294911  0.28363219    -0.85120
O7          O  0.28827739  0.40760400  0.27730582    -0.79870
O8          O  0.23471965  0.31083481  0.37226171    -0.81640
O9          O  0.26640675  0.42173042  0.45245423    -0.84390
C10         C  0.31164329  0.38544458  0.27126248     0.96380
C11         C  0.20471155  0.36575826  0.26795879     1.03820
O12         O  0.25685936  0.37547229  0.36745289    -1.13370
O13         O  0.20422018  0.38708932  0.44305890    -0.75800
O14         O  0.20303720  0.42423685  0.38119882    -0.79290
O15         O  0.30725136  0.35827821  0.28773749    -0.79980
C16         C  0.19002538  0.41117555  0.42148036     0.95280
O17         O  0.27842768  0.44075197  0.37416865    -0.77940
O18         O  0.24580384  0.32901611  0.45137720    -0.83130
C19         C  0.32293236  0.33944990  0.42533911     0.97900
C20         C  0.23528368  0.30775268  0.42188040     1.03820
O21         O  0.30990397  0.32510704  0.38642968    -0.78770
C22         C  0.27612788  0.44358197  0.42370972     1.02120
Fe23       Fe  0.00606050  0.08654865  0.33900955     1.65780
Fe24       Fe  0.00248783  0.12075914  0.45570078     1.73250
Fe25       Fe  0.48784659  0.16457971  0.34825416     1.54420
O26         O  0.02696287  0.15702588  0.29016064    -0.82510
O27         O  0.45144022  0.13481764  0.45813623    -0.80810
O28         O  0.04488528  0.10703632  0.29643519    -0.85010
O29         O  0.46425356  0.09871341  0.28543356    -0.79870
O30         O  0.52504177  0.18728219  0.38992969    -0.81640
O31         O  0.48759399  0.07537993  0.45979942    -0.84390
C32         C  0.44171576  0.12179412  0.28312197     0.96380
C33         C  0.04954735  0.13452899  0.28166335     1.03820
O34         O  0.99940373  0.12416307  0.38029473    -1.13370
O35         O  0.05321360  0.10519777  0.45131612    -0.75800
O36         O  0.04656313  0.06863047  0.39068756    -0.79290
O37         O  0.44745508  0.14708619  0.30529525    -0.79980
C38         C  0.06236643  0.07945017  0.43079820     0.95280
O39         O  0.96903283  0.06344879  0.38069094    -0.77940
O40         O  0.01776200  0.16584331  0.46757611    -0.83130
C41         C  0.43716884  0.16040195  0.44339719     0.97900
C42         C  0.02654872  0.18854100  0.43965561     1.03820
O43         O  0.44967481  0.17624153  0.40603700    -0.78770
C44         C  0.47187720  0.05744406  0.42942596     1.02120
Fe45       Fe  0.50326595  0.33666508  0.12207982     1.65780
Fe46       Fe  0.00844650  0.37394432  0.00621058     1.73250
Fe47       Fe  0.01178408  0.41392998  0.11889685     1.54420
O48         O  0.47280333  0.40498458  0.17485243    -0.82510
O49         O  0.05746243  0.39018405  0.00665467    -0.80810
O50         O  0.46033965  0.35599271  0.16324418    -0.85010
O51         O  0.04153427  0.34667235  0.17868513    -0.79870
O52         O  0.97111692  0.43552784  0.07580203    -0.81640
O53         O  0.02858595  0.32832697  0.00078472    -0.84390
C54         C  0.06249620  0.36851110  0.18142004     0.96380
C55         C  0.45223309  0.38295000  0.18008224     1.03820
O56         O  0.50762437  0.37485341  0.08275122    -1.13370
O57         O  0.45947322  0.35765634  0.00485948    -0.75800
O58         O  0.46620314  0.32146527  0.06817764    -0.79290
O59         O  0.05459824  0.39509071  0.16211224    -0.79980
C60         C  0.45035305  0.33332900  0.02776542     0.95280
O61         O  0.54436440  0.31454267  0.08172289    -0.77940
O62         O  0.48746822  0.41909178  0.99735038    -0.83130
C63         C  0.06545501  0.41572893  0.02626097     0.97900
C64         C  0.47184051  0.43928903  0.02636744     1.03820
O65         O  0.04901301  0.42856446  0.06485588    -0.78770
C66         C  0.04149969  0.30831495  0.03329126     1.02120
Fe67       Fe  0.24597080  0.16673743  0.12113167     1.65780
Fe68       Fe  0.24030988  0.12413519  0.01164795     1.73250
Fe69       Fe  0.23903925  0.08956759  0.13094117     1.54410
O70         O  0.28267206  0.10009166  0.17931280    -0.82510
O71         O  0.18986566  0.11236750  0.01713934    -0.80810
O72         O  0.28458436  0.15077125  0.17394255    -0.85010
O73         O  0.20433886  0.16135942  0.17299580    -0.79870
O74         O  0.27542075  0.06263376  0.08740161    -0.81640
O75         O  0.22522129  0.17016016  0.99664737    -0.84390
C76         C  0.18854559  0.13788865  0.18811968     0.96380
C77         C  0.29801336  0.12490741  0.18944670     1.03820
O78         O  0.24233406  0.12669403  0.08851255    -1.13370
O79         O  0.29037174  0.13629933  0.00807517    -0.75800
O80         O  0.28734690  0.17443534  0.06850585    -0.79290
O81         O  0.20029206  0.11048416  0.17872635    -0.79980
C82         C  0.30248698  0.15949389  0.03058178     0.95280
O83         O  0.20780530  0.18791598  0.07330914    -0.77940
O84         O  0.25660357  0.07759111  0.00834936    -0.83130
C85         C  0.18109596  0.08810552  0.04046667     0.97900
C86         C  0.27119177  0.05735594  0.03882989     1.03820
O87         O  0.19712425  0.07676590  0.08171327    -0.78770
C88         C  0.21278475  0.19198797  0.02493244     1.02120
C89         C  0.38304602  0.09689154  0.26689243    -0.02680
C90         C  0.40655320  0.12014792  0.25512271     0.07000
C91         C  0.39374398  0.14538712  0.22391340    -0.02790
C92         C  0.35794772  0.14834198  0.20697028    -0.02800
C93         C  0.33439468  0.12419056  0.21623433     0.07130
C94         C  0.34766193  0.09855909  0.24707568    -0.02990
Br95       Br  0.31690635  0.06653821  0.26701240    -0.01540
Br96       Br  0.39818480  0.06346533  0.31346000    -0.01610
Br97       Br  0.34338815  0.18640020  0.17036660    -0.01570
Br98       Br  0.42633719  0.17578398  0.20207427    -0.01560
C99         C  0.08829436  0.14492107  0.20311057    -0.02680
C100        C  0.08448668  0.14044587  0.25778191     0.07000
C101        C  0.11509588  0.13925451  0.29044106    -0.02790
C102        C  0.14926395  0.13935816  0.26823102    -0.02800
C103        C  0.15314226  0.14220345  0.21331831     0.07130
C104        C  0.12245944  0.14634672  0.18109920    -0.02990
Br105      Br  0.12736078  0.15313146  0.10627101    -0.01540
Br106      Br  0.04681472  0.14788095  0.15837607    -0.01610
Br107      Br  0.19088596  0.13537792  0.31267055    -0.01570
Br108      Br  0.11009837  0.13835524  0.36605471    -0.01560
C109        C  0.36606787  0.15243252  0.03957441    -0.02680
C110        C  0.33715839  0.16752094  0.01416804     0.07000
C111        C  0.34154295  0.18470373  0.46773849    -0.02790
C112        C  0.37539219  0.18545319  0.44529728    -0.02800
C113        C  0.40464687  0.17026936  0.47163990     0.07130
C114        C  0.39993356  0.15705402  0.52231258    -0.02990
Br115      Br  0.43877440  0.14172109  0.56744217    -0.01540
Br116      Br  0.35926794  0.11872796  0.08779976    -0.01610
Br117      Br  0.37998791  0.20411702  0.37654479    -0.01570
Br118      Br  0.30040961  0.20234986  0.43063004    -0.01560
C119        C  0.09129341  0.06052877  0.51243335    -0.02680
C120        C  0.09207782  0.06232270  0.45675792     0.07000
C121        C  0.12454902  0.06061554  0.43084789    -0.02790
C122        C  0.15513401  0.06647453  0.45957089    -0.02800
C123        C  0.15294477  0.07178671  0.01467633     0.07130
C124        C  0.12200171  0.06538432  0.04180136    -0.02990
Br125      Br  0.12018363  0.06743432  0.11776781    -0.01540
Br126      Br  0.04690102  0.05647246  0.54789970    -0.01610
Br127      Br  0.19884733  0.07029405  0.42198328    -0.01570
Br128      Br  0.12601098  0.05474653  0.35552301    -0.01560
C129        C  0.45890593  0.50071612  0.42115426    -0.02680
C130        C  0.45961125  0.02789236  0.45182885     0.07000
C131        C  0.45277215  0.02558548  0.50655635    -0.02790
C132        C  0.45337521  0.99656101  0.03183906    -0.02800
C133        C  0.45819007  0.46922331  0.00172590     0.07130
C134        C  0.45604666  0.47189206  0.44609310    -0.02990
Br135      Br  0.44824807  0.43619894  0.40338180    -0.01540
Br136      Br  0.46513874  0.50114228  0.34551451    -0.01610
Br137      Br  0.94879100  0.99564313  0.10790082    -0.01570
Br138      Br  0.94204216  0.06211269  0.04776214    -0.01560
C139        C  0.52772484  0.25327557  0.04143648    -0.02680
C140        C  0.04656831  0.27580587  0.01534078     0.07000
C141        C  0.06187859  0.26865349  0.46596997    -0.02790
C142        C  0.05729987  0.23971989  0.44195425    -0.02800
C143        C  0.03585262  0.21797208  0.46630745     0.07130
C144        C  0.51998742  0.22607571  0.51522945    -0.02990
Br145      Br  0.48031493  0.20515485  0.04132833    -0.01540
Br146      Br  0.50856390  0.26033325  0.11149156    -0.01610
Br147      Br  0.07834165  0.23179707  0.37382897    -0.01570
Br148      Br  0.08904323  0.29896267  0.43141397    -0.01560
C149        C  0.37753344  0.38823698  0.28100360    -0.02680
C150        C  0.34709471  0.39112371  0.24813188     0.07000
C151        C  0.35166712  0.39633116  0.19379444    -0.02790
C152        C  0.38624098  0.39577061  0.17217760    -0.02800
C153        C  0.41651675  0.38884605  0.20447302     0.07130
C154        C  0.41190013  0.38575445  0.25919788    -0.02990
Br155      Br  0.45269367  0.37681176  0.30378185    -0.01540
Br156      Br  0.37202150  0.39013293  0.35635624    -0.01610
Br157      Br  0.39212198  0.40405519  0.09802146    -0.01570
Br158      Br  0.31049773  0.40405417  0.14950542    -0.01560
C159        C  0.16330273  0.35915627  0.19027293    -0.02680
C160        C  0.16921861  0.35988179  0.24508077     0.07000
C161        C  0.13980632  0.35882145  0.27923577    -0.02790
C162        C  0.10477081  0.36087812  0.25898698    -0.02800
C163        C  0.09881863  0.36248945  0.20417395     0.07130
C164        C  0.12829596  0.35951105  0.16997655    -0.02990
Br165      Br  0.12066034  0.35467483  0.09523165    -0.01540
Br166      Br  0.20314881  0.35837636  0.14336228    -0.01610
Br167      Br  0.06492776  0.36236925  0.30610886    -0.01570
Br168      Br  0.14762740  0.35409528  0.35410265    -0.01560
C169        C  0.41770634  0.31315555  0.45240014    -0.02680
C170        C  0.41922065  0.31942986  0.00672692     0.07000
C171        C  0.38816931  0.32282162  0.03597958    -0.02790
C172        C  0.35620211  0.32947377  0.50941930    -0.02800
C173        C  0.35475703  0.32699000  0.45347500     0.07130
C174        C  0.38500033  0.31560860  0.42578945    -0.02990
Br175      Br  0.38328615  0.30715466  0.35111111    -0.01540
Br176      Br  0.46103907  0.30372254  0.41454749    -0.01610
Br177      Br  0.31598248  0.34452662  0.55099236    -0.01570
Br178      Br  0.39007456  0.32101829  0.11204774    -0.01560
C179        C  0.12676040  0.43189216  0.03016035    -0.02680
C180        C  0.09500613  0.43040495  0.00185201     0.07000
C181        C  0.09475883  0.43379582  0.44652569    -0.02790
C182        C  0.12676464  0.43168732  0.41894214    -0.02800
C183        C  0.15833799  0.42485341  0.44734744     0.07130
C184        C  0.15874955  0.42803817  0.50294794    -0.02990
Br185      Br  0.20278791  0.42560085  0.54229757    -0.01540
Br186      Br  0.12634893  0.43662014  0.10579578    -0.01610
Br187      Br  0.12663839  0.43572623  0.34314218    -0.01570
Br188      Br  0.05031665  0.43874773  0.40890192    -0.01560
C189        C  0.24675211  0.00992112  0.50684327    -0.02680
C190        C  0.27715846  0.02574333  0.01735142     0.07000
C191        C  0.30962929  0.01413698  0.49572439    -0.02790
C192        C  0.31065852  0.48663911  0.46506739    -0.02800
C193        C  0.27856320  0.47416023  0.44910437     0.07130
C194        C  0.24671094  0.48854920  0.46657334    -0.02990
Br195      Br  0.20331211  0.48580694  0.42817331    -0.01540
Br196      Br  0.20673431  0.01213656  0.55278646    -0.01610
Br197      Br  0.35501145  0.46699832  0.44372248    -0.01570
Br198      Br  0.35198994  0.03498548  0.00988697    -0.01560
C199        C  0.19940858  0.25931168  0.42873002    -0.02680
C200        C  0.22618622  0.27812894  0.44736820     0.07000
C201        C  0.24601006  0.26802329  0.49202972    -0.02790
C202        C  0.23529013  0.24399685  0.02350891    -0.02800
C203        C  0.21118075  0.22365688  0.00309056     0.07130
C204        C  0.19342835  0.23123131  0.45521343    -0.02990
Br205      Br  0.16099969  0.20298594  0.42705665    -0.01540
Br206      Br  0.17265452  0.27025697  0.36587162    -0.01610
Br207      Br  0.25683781  0.23840678  0.09257011    -0.01570
Br208      Br  0.29439061  0.27793167  0.49923547    -0.01560
Fe209      Fe  0.24535489  0.41415629  0.82970970     1.65780
Fe210      Fe  0.25653415  0.37541421  0.94355920     1.73250
Fe211      Fe  0.26945279  0.33677393  0.83095728     1.54420
O212        O  0.22804164  0.34366333  0.77527864    -0.82510
O213        O  0.30891698  0.36443707  0.94286569    -0.80810
O214        O  0.20896000  0.39294910  0.78363218    -0.85120
O215        O  0.28827740  0.40760399  0.77730580    -0.79870
O216        O  0.23471965  0.31083482  0.87226174    -0.81640
O217        O  0.26640677  0.42173043  0.95245421    -0.84390
C218        C  0.31164330  0.38544457  0.77126247     0.96380
C219        C  0.20471156  0.36575825  0.76795879     1.03820
O220        O  0.25685936  0.37547229  0.86745289    -1.13370
O221        O  0.20422019  0.38708935  0.94305891    -0.75800
O222        O  0.20303720  0.42423686  0.88119880    -0.79290
O223        O  0.30725137  0.35827820  0.78773749    -0.79980
C224        C  0.19002539  0.41117557  0.92148036     0.95280
O225        O  0.27842769  0.44075198  0.87416862    -0.77940
O226        O  0.24580384  0.32901613  0.95137721    -0.83130
C227        C  0.32293236  0.33944990  0.92533911     0.97900
C228        C  0.23528368  0.30775269  0.92188042     1.03820
O229        O  0.30990397  0.32510704  0.88642969    -0.78770
C230        C  0.27612789  0.44358198  0.92370969     1.02120
Fe231      Fe  0.00606050  0.08654865  0.83900954     1.65780
Fe232      Fe  0.00248782  0.12075914  0.95570077     1.73250
Fe233      Fe  0.48784659  0.16457971  0.84825417     1.54420
O234        O  0.02696287  0.15702589  0.79016062    -0.82510
O235        O  0.45144022  0.13481765  0.95813625    -0.80810
O236        O  0.04488528  0.10703633  0.79643518    -0.85010
O237        O  0.46425356  0.09871341  0.78543358    -0.79870
O238        O  0.52504177  0.18728220  0.88992970    -0.81640
O239        O  0.48759399  0.07537994  0.95979945    -0.84390
C240        C  0.44171576  0.12179412  0.78312199     0.96380
C241        C  0.04954735  0.13452899  0.78166333     1.03820
O242        O  0.99940372  0.12416307  0.88029471    -1.13370
O243        O  0.05321360  0.10519778  0.95131610    -0.75800
O244        O  0.04656313  0.06863048  0.89068754    -0.79290
O245        O  0.44745508  0.14708619  0.80529526    -0.79980
C246        C  0.06236642  0.07945018  0.93079818     0.95280
O247        O  0.96903282  0.06344879  0.88069093    -0.77940
O248        O  0.01776198  0.16584332  0.96757609    -0.83130
C249        C  0.43716884  0.16040195  0.94339721     0.97900
C250        C  0.02654870  0.18854100  0.93965559     1.03820
O251        O  0.44967481  0.17624153  0.90603701    -0.78770
C252        C  0.47187720  0.05744407  0.92942599     1.02120
Fe253      Fe  0.50326595  0.33666507  0.62207981     1.65780
Fe254      Fe  0.00844650  0.37394431  0.50621059     1.73250
Fe255      Fe  0.01178407  0.41392998  0.61889687     1.54420
O256        O  0.47280333  0.40498457  0.67485243    -0.82510
O257        O  0.05746242  0.39018405  0.50665469    -0.80810
O258        O  0.46033965  0.35599270  0.66324416    -0.85010
O259        O  0.04153427  0.34667234  0.67868514    -0.79870
O260        O  0.97111691  0.43552783  0.57580206    -0.81640
O261        O  0.02858595  0.32832697  0.50078473    -0.84390
C262        C  0.06249620  0.36851109  0.68142005     0.96380
C263        C  0.45223309  0.38294998  0.68008224     1.03820
O264        O  0.50762437  0.37485341  0.58275121    -1.13370
O265        O  0.45947323  0.35765634  0.50485947    -0.75800
O266        O  0.46620315  0.32146526  0.56817763    -0.79290
O267        O  0.05459824  0.39509070  0.66211226    -0.79980
C268        C  0.45035305  0.33332900  0.52776540     0.95280
O269        O  0.54436440  0.31454266  0.58172288    -0.77940
O270        O  0.48746823  0.41909178  0.49735038    -0.83130
C271        C  0.06545500  0.41572893  0.52626100     0.97900
C272        C  0.47184052  0.43928903  0.52636745     1.03820
O273        O  0.04901300  0.42856446  0.56485590    -0.78770
C274        C  0.04149969  0.30831495  0.53329127     1.02120
Fe275      Fe  0.24597081  0.16673742  0.62113166     1.65780
Fe276      Fe  0.24030989  0.12413517  0.51164795     1.73250
Fe277      Fe  0.23903925  0.08956758  0.63094118     1.54410
O278        O  0.28267206  0.10009166  0.67931281    -0.82510
O279        O  0.18986567  0.11236748  0.51713934    -0.80810
O280        O  0.28458437  0.15077125  0.67394255    -0.85010
O281        O  0.20433887  0.16135941  0.67299580    -0.79870
O282        O  0.27542075  0.06263374  0.58740163    -0.81640
O283        O  0.22522129  0.17016014  0.49664736    -0.84390
C284        C  0.18854559  0.13788865  0.68811967     0.96380
C285        C  0.29801336  0.12490741  0.68944670     1.03820
O286        O  0.24233406  0.12669402  0.58851255    -1.13370
O287        O  0.29037175  0.13629931  0.50807516    -0.75800
O288        O  0.28734691  0.17443532  0.56850584    -0.79290
O289        O  0.20029206  0.11048416  0.67872636    -0.79980
C290        C  0.30248699  0.15949387  0.53058177     0.95280
O291        O  0.20780531  0.18791597  0.57330912    -0.77940
O292        O  0.25660357  0.07759109  0.50834938    -0.83130
C293        C  0.18109596  0.08810550  0.54046668     0.97900
C294        C  0.27119177  0.05735592  0.53882990     1.03820
O295        O  0.19712426  0.07676589  0.58171329    -0.78770
C296        C  0.21278475  0.19198795  0.52493243     1.02120
C297        C  0.38304602  0.09689155  0.76689246    -0.02680
C298        C  0.40655320  0.12014792  0.75512273     0.07000
C299        C  0.39374398  0.14538711  0.72391340    -0.02790
C300        C  0.35794772  0.14834198  0.70697028    -0.02800
C301        C  0.33439468  0.12419056  0.71623433     0.07130
C302        C  0.34766193  0.09855909  0.74707570    -0.02990
Br303      Br  0.31690635  0.06653821  0.76701242    -0.01540
Br304      Br  0.39818479  0.06346534  0.81346005    -0.01610
Br305      Br  0.34338816  0.18640019  0.67036659    -0.01570
Br306      Br  0.42633719  0.17578397  0.70207427    -0.01560
C307        C  0.08829437  0.14492106  0.70311055    -0.02680
C308        C  0.08448668  0.14044588  0.75778190     0.07000
C309        C  0.11509588  0.13925452  0.79044105    -0.02790
C310        C  0.14926395  0.13935817  0.76823101    -0.02800
C311        C  0.15314226  0.14220345  0.71331830     0.07130
C312        C  0.12245944  0.14634671  0.68109918    -0.02990
Br313      Br  0.12736078  0.15313144  0.60627099    -0.01540
Br314      Br  0.04681472  0.14788093  0.65837604    -0.01610
Br315      Br  0.19088595  0.13537794  0.81267055    -0.01570
Br316      Br  0.11009836  0.13835526  0.86605470    -0.01560
C317        C  0.36606788  0.15243251  0.53957440    -0.02680
C318        C  0.33715839  0.16752092  0.51416803     0.07000
C319        C  0.34154296  0.18470375  0.96773851    -0.02790
C320        C  0.37539219  0.18545321  0.94529730    -0.02800
C321        C  0.40464687  0.17026937  0.97163992     0.07130
C322        C  0.39993356  0.15705403  0.02231260    -0.02990
Br323      Br  0.43877439  0.14172109  0.06744219    -0.01540
Br324      Br  0.35926795  0.11872795  0.58779976    -0.01610
Br325      Br  0.37998792  0.20411704  0.87654482    -0.01570
Br326      Br  0.30040962  0.20234991  0.93063007    -0.01560
C327        C  0.09129341  0.06052879  0.01243333    -0.02680
C328        C  0.09207782  0.06232272  0.95675790     0.07000
C329        C  0.12454902  0.06061556  0.93084788    -0.02790
C330        C  0.15513401  0.06647455  0.95957088    -0.02800
C331        C  0.15294478  0.07178669  0.51467634     0.07130
C332        C  0.12200171  0.06538430  0.54180137    -0.02990
Br333      Br  0.12018363  0.06743431  0.61776782    -0.01540
Br334      Br  0.04690102  0.05647247  0.04789969    -0.01610
Br335      Br  0.19884732  0.07029408  0.92198326    -0.01570
Br336      Br  0.12601097  0.05474655  0.85552300    -0.01560
C337        C  0.45890594  0.50071613  0.92115425    -0.02680
C338        C  0.45961125  0.02789237  0.95182888     0.07000
C339        C  0.45277216  0.02558548  0.00655638    -0.02790
C340        C  0.45337519  0.99656101  0.53183903    -0.02800
C341        C  0.45819008  0.46922331  0.50172591     0.07130
C342        C  0.45604666  0.47189206  0.94609309    -0.02990
Br343      Br  0.44824807  0.43619895  0.90338178    -0.01540
Br344      Br  0.46513877  0.50114229  0.84551451    -0.01610
Br345      Br  0.94879097  0.99564313  0.60790083    -0.01570
Br346      Br  0.94204215  0.06211269  0.54776215    -0.01560
C347        C  0.52772483  0.25327557  0.54143646    -0.02680
C348        C  0.04656831  0.27580587  0.51534078     0.07000
C349        C  0.06187859  0.26865349  0.96596997    -0.02790
C350        C  0.05729987  0.23971989  0.94195424    -0.02800
C351        C  0.03585261  0.21797208  0.96630744     0.07130
C352        C  0.51998742  0.22607571  0.01522947    -0.02990
Br353      Br  0.48031491  0.20515485  0.54132829    -0.01540
Br354      Br  0.50856389  0.26033325  0.61149153    -0.01610
Br355      Br  0.07834166  0.23179707  0.87382898    -0.01570
Br356      Br  0.08904325  0.29896267  0.93141398    -0.01560
C357        C  0.37753344  0.38823697  0.78100360    -0.02680
C358        C  0.34709471  0.39112370  0.74813187     0.07000
C359        C  0.35166713  0.39633114  0.69379443    -0.02790
C360        C  0.38624098  0.39577060  0.67217759    -0.02800
C361        C  0.41651675  0.38884604  0.70447301     0.07130
C362        C  0.41190013  0.38575444  0.75919788    -0.02990
Br363      Br  0.45269367  0.37681175  0.80378184    -0.01540
Br364      Br  0.37202151  0.39013292  0.85635623    -0.01610
Br365      Br  0.39212199  0.40405517  0.59802145    -0.01570
Br366      Br  0.31049774  0.40405415  0.64950541    -0.01560
C367        C  0.16330273  0.35915625  0.69027294    -0.02680
C368        C  0.16921861  0.35988178  0.74508078     0.07000
C369        C  0.13980632  0.35882144  0.77923578    -0.02790
C370        C  0.10477081  0.36087812  0.75898700    -0.02800
C371        C  0.09881863  0.36248944  0.70417397     0.07130
C372        C  0.12829596  0.35951104  0.66997656    -0.02990
Br373      Br  0.12066034  0.35467481  0.59523167    -0.01540
Br374      Br  0.20314880  0.35837633  0.64336229    -0.01610
Br375      Br  0.06492776  0.36236925  0.80610887    -0.01570
Br376      Br  0.14762740  0.35409529  0.85410267    -0.01560
C377        C  0.41770633  0.31315554  0.95240017    -0.02680
C378        C  0.41922065  0.31942987  0.50672689     0.07000
C379        C  0.38816931  0.32282162  0.53597957    -0.02790
C380        C  0.35620211  0.32947378  0.00941932    -0.02800
C381        C  0.35475703  0.32699000  0.95347501     0.07130
C382        C  0.38500033  0.31560859  0.92578947    -0.02990
Br383      Br  0.38328615  0.30715465  0.85111113    -0.01540
Br384      Br  0.46103907  0.30372252  0.91454752    -0.01610
Br385      Br  0.31598249  0.34452665  0.05099236    -0.01570
Br386      Br  0.39007457  0.32101827  0.61204772    -0.01560
C387        C  0.12676039  0.43189214  0.53016037    -0.02680
C388        C  0.09500613  0.43040494  0.50185203     0.07000
C389        C  0.09475884  0.43379582  0.94652567    -0.02790
C390        C  0.12676464  0.43168734  0.91894212    -0.02800
C391        C  0.15833800  0.42485344  0.94734742     0.07130
C392        C  0.15874956  0.42803821  0.00294792    -0.02990
Br393      Br  0.20278792  0.42560091  0.04229755    -0.01540
Br394      Br  0.12634893  0.43662012  0.60579580    -0.01610
Br395      Br  0.12663840  0.43572624  0.84314216    -0.01570
Br396      Br  0.05031666  0.43874771  0.90890189    -0.01560
C397        C  0.24675210  0.00992115  0.00684322    -0.02680
C398        C  0.27715847  0.02574331  0.51735145     0.07000
C399        C  0.30962929  0.01413699  0.99572439    -0.02790
C400        C  0.31065853  0.48663909  0.96506746    -0.02800
C401        C  0.27856321  0.47416025  0.94910432     0.07130
C402        C  0.24671094  0.48854924  0.96657319    -0.02990
Br403      Br  0.20331214  0.48580698  0.92817307    -0.01540
Br404      Br  0.20673430  0.01213658  0.05278639    -0.01610
Br405      Br  0.35501147  0.46699826  0.94372270    -0.01570
Br406      Br  0.35198993  0.03498547  0.50988694    -0.01560
C407        C  0.19940858  0.25931170  0.92873003    -0.02680
C408        C  0.22618621  0.27812896  0.94736823     0.07000
C409        C  0.24601004  0.26802332  0.99202976    -0.02790
C410        C  0.23529015  0.24399683  0.52350888    -0.02800
C411        C  0.21118077  0.22365686  0.50309054     0.07130
C412        C  0.19342834  0.23123132  0.95521345    -0.02990
Br413      Br  0.16099970  0.20298595  0.92705664    -0.01540
Br414      Br  0.17265453  0.27025698  0.86587162    -0.01610
Br415      Br  0.25683784  0.23840676  0.59257007    -0.01570
Br416      Br  0.29439058  0.27793170  0.99923555    -0.01560
Fe417      Fe  0.24535377  0.91415655  0.32970959     1.65780
Fe418      Fe  0.25653286  0.87541437  0.44355902     1.73250
Fe419      Fe  0.26945161  0.83677417  0.33095704     1.54420
O420        O  0.22804044  0.84366362  0.27527843    -0.82510
O421        O  0.30891569  0.86443724  0.44286563    -0.80810
O422        O  0.20895889  0.89294943  0.28363193    -0.85120
O423        O  0.28827629  0.90760427  0.27730572    -0.79870
O424        O  0.23471850  0.81083499  0.37226144    -0.81640
O425        O  0.26640549  0.92173056  0.45245414    -0.84390
C426        C  0.31164216  0.88544484  0.27126231     0.96380
C427        C  0.20471041  0.86575859  0.26795852     1.03820
O428        O  0.25685817  0.87547251  0.36745271    -1.13370
O429        O  0.20421889  0.88708952  0.44305858    -0.75800
O430        O  0.20303605  0.92423713  0.38119865    -0.79290
O431        O  0.30725019  0.85827847  0.28773727    -0.79980
C432        C  0.19002415  0.91117579  0.42148009     0.95280
O433        O  0.27842660  0.94075213  0.37416865    -0.77940
O434        O  0.24580259  0.82901628  0.45137695    -0.83130
C435        C  0.32293115  0.83945013  0.42533896     0.97900
C436        C  0.23528253  0.80775283  0.42188012     1.03820
O437        O  0.30990281  0.82510730  0.38642946    -0.78770
C438        C  0.27612675  0.94358210  0.42370972     1.02120
Fe439      Fe  0.00606060  0.58654872  0.33900939     1.65780
Fe440      Fe  0.00248802  0.62075935  0.45570052     1.73250
Fe441      Fe  0.48784672  0.66457986  0.34825383     1.54420
O442        O  0.02696310  0.65702603  0.29016046    -0.82510
O443        O  0.45144041  0.63481786  0.45813599    -0.80810
O444        O  0.04488528  0.60703641  0.29643478    -0.85010
O445        O  0.46425351  0.59871342  0.28543361    -0.79870
O446        O  0.52504181  0.68728244  0.38992943    -0.81640
O447        O  0.48759423  0.57538016  0.45979929    -0.84390
C448        C  0.44171584  0.62179423  0.28312177     0.96380
C449        C  0.04954747  0.63452907  0.28166301     1.03820
O450        O  0.99940385  0.62416321  0.38029447    -1.13370
O451        O  0.05321380  0.60519799  0.45131580    -0.75800
O452        O  0.04656333  0.56863065  0.39068730    -0.79290
O453        O  0.44745529  0.64708635  0.30529478    -0.79980
C454        C  0.06236661  0.57945037  0.43079794     0.95280
O455        O  0.96903310  0.56344870  0.38069098    -0.77940
O456        O  0.01776216  0.66584352  0.46757580    -0.83130
C457        C  0.43716894  0.66040211  0.44339685     0.97900
C458        C  0.02654874  0.68854126  0.43965535     1.03820
O459        O  0.44967486  0.67624166  0.40603657    -0.78770
C460        C  0.47187754  0.55744411  0.42942605     1.02120
Fe461      Fe  0.50326483  0.83666553  0.12207946     1.65780
Fe462      Fe  0.00844505  0.87394474  0.00621017     1.73250
Fe463      Fe  0.01178284  0.91393049  0.11889644     1.54420
O464        O  0.47280208  0.90498503  0.17485198    -0.82510
O465        O  0.05746088  0.89018470  0.00665390    -0.80810
O466        O  0.46033855  0.85599309  0.16324392    -0.85010
O467        O  0.04153315  0.84667284  0.17868470    -0.79870
O468        O  0.97111574  0.93552856  0.07580174    -0.81640
O469        O  0.02858476  0.82832747  0.00078428    -0.84390
C470        C  0.06249505  0.86851160  0.18141958     0.96380
C471        C  0.45223192  0.88295038  0.18008192     1.03820
O472        O  0.50762307  0.87485389  0.08275081    -1.13370
O473        O  0.45947188  0.85765657  0.00485928    -0.75800
O474        O  0.46620201  0.82146554  0.06817745    -0.79290
O475        O  0.05459705  0.89509119  0.16211176    -0.79980
C476        C  0.45035182  0.83332922  0.02776526     0.95280
O477        O  0.54436331  0.81454322  0.08172242    -0.77940
O478        O  0.48746637  0.91909202  0.99735004    -0.83130
C479        C  0.06545359  0.91572951  0.02626038     0.97900
C480        C  0.47183876  0.93928936  0.02636702     1.03820
O481        O  0.04901173  0.92856497  0.06485546    -0.78770
C482        C  0.04149861  0.80831550  0.03329079     1.02120
Fe483      Fe  0.24597085  0.66673749  0.12113109     1.65780
Fe484      Fe  0.24030991  0.62413522  0.01164741     1.73250
Fe485      Fe  0.23903952  0.58956763  0.13094068     1.54410
O486        O  0.28267226  0.60009185  0.17931234    -0.82510
O487        O  0.18986577  0.61236740  0.01713898    -0.80810
O488        O  0.28458459  0.65077144  0.17394181    -0.85010
O489        O  0.20433903  0.66135939  0.17299543    -0.79870
O490        O  0.27542113  0.56263391  0.08740111    -0.81640
O491        O  0.22522108  0.67016017  0.99664685    -0.84390
C492        C  0.18854576  0.63788860  0.18811923     0.96380
C493        C  0.29801357  0.62490762  0.18944610     1.03820
O494        O  0.24233419  0.62669407  0.08851202    -1.13370
O495        O  0.29037169  0.63629948  0.00807442    -0.75800
O496        O  0.28734682  0.67443550  0.06850508    -0.79290
O497        O  0.20029223  0.61048413  0.17872582    -0.79980
C498        C  0.30248690  0.65949406  0.03058100     0.95280
O499        O  0.20780514  0.68791588  0.07330871    -0.77940
O500        O  0.25660380  0.57759115  0.00834887    -0.83130
C501        C  0.18109619  0.58810538  0.04046631     0.97900
C502        C  0.27119216  0.55735606  0.03882939     1.03820
O503        O  0.19712458  0.57676579  0.08171284    -0.78770
C504        C  0.21278446  0.69198791  0.02493200     1.02120
C505        C  0.38304585  0.59689199  0.26689290    -0.02680
C506        C  0.40655327  0.62014806  0.25512254     0.07000
C507        C  0.39374429  0.64538709  0.22391260    -0.02790
C508        C  0.35794808  0.64834200  0.20696927    -0.02800
C509        C  0.33439485  0.62419079  0.21623379     0.07130
C510        C  0.34766182  0.59855954  0.24707591    -0.02990
Br511      Br  0.31690588  0.56653910  0.26701343    -0.01540
Br512      Br  0.39818414  0.56346632  0.31346189    -0.01610
Br513      Br  0.34338877  0.68640002  0.17036482    -0.01570
Br514      Br  0.42633773  0.67578368  0.20207316    -0.01560
C515        C  0.08829450  0.64492105  0.20311017    -0.02680
C516        C  0.08448682  0.64044587  0.25778153     0.07000
C517        C  0.11509603  0.63925447  0.29044065    -0.02790
C518        C  0.14926410  0.63935808  0.26823059    -0.02800
C519        C  0.15314241  0.64220337  0.21331788     0.07130
C520        C  0.12245959  0.64634666  0.18109878    -0.02990
Br521      Br  0.12736091  0.65313140  0.10627059    -0.01540
Br522      Br  0.04681485  0.64788099  0.15837570    -0.01610
Br523      Br  0.19088612  0.63537779  0.31267012    -0.01570
Br524      Br  0.11009853  0.63835523  0.36605430    -0.01560
C525        C  0.36606774  0.65243246  0.03957365    -0.02680
C526        C  0.33715834  0.66752105  0.01416736     0.07000
C527        C  0.34154301  0.68470397  0.46773797    -0.02790
C528        C  0.37539229  0.68545344  0.44529689    -0.02800
C529        C  0.40464690  0.67026946  0.47163948     0.07130
C530        C  0.39993347  0.65705398  0.52231202    -0.02990
Br531      Br  0.43877415  0.64172090  0.56744173    -0.01540
Br532      Br  0.35926764  0.61872774  0.08779864    -0.01610
Br533      Br  0.37998816  0.70411756  0.37654468    -0.01570
Br534      Br  0.30040975  0.70235026  0.43062952    -0.01560
C535        C  0.09129356  0.56052900  0.51243317    -0.02680
C536        C  0.09207796  0.56232289  0.45675773     0.07000
C537        C  0.12454916  0.56061553  0.43084767    -0.02790
C538        C  0.15513421  0.56647434  0.45957065    -0.02800
C539        C  0.15294502  0.57178655  0.01467606     0.07130
C540        C  0.12200193  0.56538432  0.04180112    -0.02990
Br541      Br  0.12018393  0.56743430  0.11776758    -0.01540
Br542      Br  0.04690115  0.55647307  0.54789964    -0.01610
Br543      Br  0.19884753  0.57029375  0.42198299    -0.01570
Br544      Br  0.12601105  0.55474651  0.35552279    -0.01560
C545        C  0.45890572  0.00071617  0.42115361    -0.02680
C546        C  0.45961194  0.52789235  0.45182935     0.07000
C547        C  0.45277409  0.52558540  0.50655720    -0.02790
C548        C  0.45337842  0.49656096  0.03184008    -0.02800
C549        C  0.45818790  0.96922340  0.00172507     0.07130
C550        C  0.45604569  0.97189214  0.44609218    -0.02990
Br551      Br  0.44824751  0.93619913  0.40338044    -0.01540
Br552      Br  0.46514058  0.00114223  0.34551425    -0.01610
Br553      Br  0.94879842  0.49564340  0.10790250    -0.01570
Br554      Br  0.94204379  0.56211250  0.04776313    -0.01560
C555        C  0.52772449  0.75327592  0.04143626    -0.02680
C556        C  0.04656749  0.77580642  0.01534027     0.07000
C557        C  0.06187766  0.76865416  0.46596935    -0.02790
C558        C  0.05729925  0.73972047  0.44195376    -0.02800
C559        C  0.03585246  0.71797241  0.46630723     0.07130
C560        C  0.51998745  0.72607586  0.51522949    -0.02990
Br561      Br  0.48031592  0.70515416  0.04132958    -0.01540
Br562      Br  0.50856361  0.76033357  0.11149140    -0.01610
Br563      Br  0.07834096  0.73179783  0.37382836    -0.01570
Br564      Br  0.08904170  0.79896363  0.43141296    -0.01560
C565        C  0.37753232  0.88823716  0.28100337    -0.02680
C566        C  0.34709357  0.89112396  0.24813169     0.07000
C567        C  0.35166596  0.89633148  0.19379426    -0.02790
C568        C  0.38623980  0.89577098  0.17217739    -0.02800
C569        C  0.41651559  0.88884638  0.20447275     0.07130
C570        C  0.41189899  0.88575462  0.25919759    -0.02990
Br571      Br  0.45269254  0.87681169  0.30378144    -0.01540
Br572      Br  0.37202044  0.89013303  0.35635601    -0.01610
Br573      Br  0.39212077  0.90405561  0.09802126    -0.01570
Br574      Br  0.31049655  0.90405450  0.14950529    -0.01560
C575        C  0.16330160  0.85915673  0.19027257    -0.02680
C576        C  0.16921746  0.85988218  0.24508042     0.07000
C577        C  0.13980514  0.85882185  0.27923538    -0.02790
C578        C  0.10476964  0.86087859  0.25898655    -0.02800
C579        C  0.09881749  0.86248998  0.20417352     0.07130
C580        C  0.12829483  0.85951158  0.16997615    -0.02990
Br581      Br  0.12065925  0.85467543  0.09523122    -0.01540
Br582      Br  0.20314771  0.85837679  0.14336199    -0.01610
Br583      Br  0.06492658  0.86236972  0.30610838    -0.01570
Br584      Br  0.14762619  0.85409560  0.35410225    -0.01560
C585        C  0.41770512  0.81315569  0.45240007    -0.02680
C586        C  0.41921944  0.81943002  0.00672683     0.07000
C587        C  0.38816811  0.82282185  0.03597947    -0.02790
C588        C  0.35620091  0.82947402  0.50941919    -0.02800
C589        C  0.35475584  0.82699025  0.45347488     0.07130
C590        C  0.38499912  0.81560879  0.42578935    -0.02990
Br591      Br  0.38328495  0.80715482  0.35111102    -0.01540
Br592      Br  0.46103786  0.80372267  0.41454742    -0.01610
Br593      Br  0.31598126  0.84452681  0.55099225    -0.01570
Br594      Br  0.39007337  0.82101861  0.11204764    -0.01560
C595        C  0.12675905  0.93189257  0.03015993    -0.02680
C596        C  0.09500481  0.93040546  0.00185150     0.07000
C597        C  0.09475760  0.93379632  0.44652517    -0.02790
C598        C  0.12676344  0.93168768  0.41894171    -0.02800
C599        C  0.15833674  0.92485366  0.44734710     0.07130
C600        C  0.15874823  0.92803844  0.50294760    -0.02990
Br601      Br  0.20278654  0.92560097  0.54229737    -0.01540
Br602      Br  0.12634752  0.93662071  0.10579532    -0.01610
Br603      Br  0.12663730  0.93572659  0.34314175    -0.01570
Br604      Br  0.05031548  0.93874841  0.40890129    -0.01560
C605        C  0.24675280  0.50992112  0.50684274    -0.02680
C606        C  0.27715903  0.52574344  0.01735096     0.07000
C607        C  0.30962998  0.51413713  0.49572419    -0.02790
C608        C  0.31065765  0.98663902  0.46506743    -0.02800
C609        C  0.27856223  0.97416029  0.44910449     0.07130
C610        C  0.24671007  0.98854928  0.46657375    -0.02990
Br611      Br  0.20331109  0.98580713  0.42817402    -0.01540
Br612      Br  0.20673488  0.51213651  0.55278568    -0.01610
Br613      Br  0.35501047  0.96699814  0.44372224    -0.01570
Br614      Br  0.35199054  0.53498570  0.00988706    -0.01560
C615        C  0.19940758  0.75931176  0.42872994    -0.02680
C616        C  0.22618525  0.77812904  0.44736790     0.07000
C617        C  0.24600931  0.76802338  0.49202921    -0.02790
C618        C  0.23528963  0.74399686  0.02350840    -0.02800
C619        C  0.21118026  0.72365684  0.00309019     0.07130
C620        C  0.19342755  0.73123132  0.45521332    -0.02990
Br621      Br  0.16099871  0.70298599  0.42705694    -0.01540
Br622      Br  0.17265317  0.77025714  0.36587192    -0.01610
Br623      Br  0.25683754  0.73840680  0.09256944    -0.01570
Br624      Br  0.29438982  0.77793188  0.49923462    -0.01560
Fe625      Fe  0.24535377  0.91415656  0.82970958     1.65780
Fe626      Fe  0.25653287  0.87541439  0.94355901     1.73250
Fe627      Fe  0.26945161  0.83677418  0.83095704     1.54420
O628        O  0.22804044  0.84366363  0.77527843    -0.82510
O629        O  0.30891570  0.86443727  0.94286561    -0.80810
O630        O  0.20895889  0.89294944  0.78363193    -0.85120
O631        O  0.28827629  0.90760428  0.77730571    -0.79870
O632        O  0.23471850  0.81083500  0.87226146    -0.81640
O633        O  0.26640550  0.92173058  0.95245413    -0.84390
C634        C  0.31164216  0.88544485  0.77126230     0.96380
C635        C  0.20471041  0.86575860  0.76795853     1.03820
O636        O  0.25685817  0.87547252  0.86745270    -1.13370
O637        O  0.20421890  0.88708954  0.94305859    -0.75800
O638        O  0.20303606  0.92423714  0.88119864    -0.79290
O639        O  0.30725019  0.85827848  0.78773727    -0.79980
C640        C  0.19002416  0.91117581  0.92148009     0.95280
O641        O  0.27842660  0.94075215  0.87416863    -0.77940
O642        O  0.24580260  0.82901631  0.95137696    -0.83130
C643        C  0.32293115  0.83945015  0.92533896     0.97900
C644        C  0.23528254  0.80775285  0.92188014     1.03820
O645        O  0.30990281  0.82510731  0.88642946    -0.78770
C646        C  0.27612676  0.94358212  0.92370970     1.02120
Fe647      Fe  0.00606059  0.58654873  0.83900936     1.65780
Fe648      Fe  0.00248802  0.62075935  0.95570049     1.73250
Fe649      Fe  0.48784673  0.66457987  0.84825386     1.54420
O650        O  0.02696310  0.65702604  0.79016044    -0.82510
O651        O  0.45144042  0.63481786  0.95813603    -0.80810
O652        O  0.04488528  0.60703642  0.79643476    -0.85010
O653        O  0.46425351  0.59871343  0.78543362    -0.79870
O654        O  0.52504181  0.68728244  0.88992945    -0.81640
O655        O  0.48759424  0.57538016  0.95979930    -0.84390
C656        C  0.44171585  0.62179424  0.78312178     0.96380
C657        C  0.04954746  0.63452908  0.78166299     1.03820
O658        O  0.99940384  0.62416321  0.88029445    -1.13370
O659        O  0.05321380  0.60519799  0.95131577    -0.75800
O660        O  0.04656333  0.56863065  0.89068727    -0.79290
O661        O  0.44745529  0.64708635  0.80529480    -0.79980
C662        C  0.06236661  0.57945038  0.93079790     0.95280
O663        O  0.96903309  0.56344871  0.88069095    -0.77940
O664        O  0.01776215  0.66584352  0.96757579    -0.83130
C665        C  0.43716895  0.66040211  0.94339688     0.97900
C666        C  0.02654873  0.68854126  0.93965534     1.03820
O667        O  0.44967487  0.67624166  0.90603660    -0.78770
C668        C  0.47187754  0.55744411  0.92942606     1.02120
Fe669      Fe  0.50326483  0.83666553  0.62207945     1.65780
Fe670      Fe  0.00844504  0.87394474  0.50621018     1.73250
Fe671      Fe  0.01178284  0.91393049  0.61889644     1.54420
O672        O  0.47280208  0.90498503  0.67485197    -0.82510
O673        O  0.05746087  0.89018470  0.50665391    -0.80810
O674        O  0.46033855  0.85599309  0.66324391    -0.85010
O675        O  0.04153315  0.84667284  0.67868471    -0.79870
O676        O  0.97111574  0.93552856  0.57580175    -0.81640
O677        O  0.02858475  0.82832747  0.50078429    -0.84390
C678        C  0.06249505  0.86851160  0.68141959     0.96380
C679        C  0.45223192  0.88295039  0.68008190     1.03820
O680        O  0.50762307  0.87485389  0.58275080    -1.13370
O681        O  0.45947188  0.85765657  0.50485926    -0.75800
O682        O  0.46620201  0.82146555  0.56817744    -0.79290
O683        O  0.05459705  0.89509119  0.66211177    -0.79980
C684        C  0.45035182  0.83332922  0.52776524     0.95280
O685        O  0.54436331  0.81454322  0.58172241    -0.77940
O686        O  0.48746637  0.91909202  0.49735002    -0.83130
C687        C  0.06545359  0.91572951  0.52626038     0.97900
C688        C  0.47183876  0.93928936  0.52636700     1.03820
O689        O  0.04901173  0.92856497  0.56485546    -0.78770
C690        C  0.04149861  0.80831550  0.53329080     1.02120
Fe691      Fe  0.24597085  0.66673749  0.62113108     1.65780
Fe692      Fe  0.24030992  0.62413520  0.51164742     1.73250
Fe693      Fe  0.23903953  0.58956763  0.63094070     1.54410
O694        O  0.28267227  0.60009185  0.67931236    -0.82510
O695        O  0.18986578  0.61236737  0.51713898    -0.80810
O696        O  0.28458459  0.65077144  0.67394180    -0.85010
O697        O  0.20433903  0.66135938  0.67299543    -0.79870
O698        O  0.27542114  0.56263390  0.58740114    -0.81640
O699        O  0.22522108  0.67016015  0.49664685    -0.84390
C700        C  0.18854576  0.63788860  0.68811923     0.96380
C701        C  0.29801357  0.62490762  0.68944611     1.03820
O702        O  0.24233420  0.62669406  0.58851202    -1.13370
O703        O  0.29037169  0.63629948  0.50807442    -0.75800
O704        O  0.28734682  0.67443550  0.56850507    -0.79290
O705        O  0.20029224  0.61048413  0.67872583    -0.79980
C706        C  0.30248690  0.65949405  0.53058100     0.95280
O707        O  0.20780515  0.68791587  0.57330870    -0.77940
O708        O  0.25660383  0.57759114  0.50834889    -0.83130
C709        C  0.18109620  0.58810536  0.54046633     0.97900
C710        C  0.27119218  0.55735605  0.53882942     1.03820
O711        O  0.19712459  0.57676577  0.58171287    -0.78770
C712        C  0.21278446  0.69198789  0.52493199     1.02120
C713        C  0.38304585  0.59689200  0.76689291    -0.02680
C714        C  0.40655327  0.62014807  0.75512255     0.07000
C715        C  0.39374429  0.64538709  0.72391262    -0.02790
C716        C  0.35794808  0.64834200  0.70696929    -0.02800
C717        C  0.33439485  0.62419079  0.71623381     0.07130
C718        C  0.34766182  0.59855955  0.74707593    -0.02990
Br719      Br  0.31690588  0.56653911  0.76701346    -0.01540
Br720      Br  0.39818414  0.56346633  0.81346190    -0.01610
Br721      Br  0.34338877  0.68640002  0.67036484    -0.01570
Br722      Br  0.42633773  0.67578369  0.70207317    -0.01560
C723        C  0.08829451  0.64492105  0.70311016    -0.02680
C724        C  0.08448681  0.64044588  0.75778151     0.07000
C725        C  0.11509602  0.63925449  0.79044064    -0.02790
C726        C  0.14926410  0.63935810  0.76823059    -0.02800
C727        C  0.15314241  0.64220338  0.71331788     0.07130
C728        C  0.12245959  0.64634666  0.68109877    -0.02990
Br729      Br  0.12736092  0.65313138  0.60627058    -0.01540
Br730      Br  0.04681485  0.64788097  0.65837568    -0.01610
Br731      Br  0.19088611  0.63537783  0.81267012    -0.01570
Br732      Br  0.11009852  0.63835526  0.86605428    -0.01560
C733        C  0.36606774  0.65243246  0.53957364    -0.02680
C734        C  0.33715834  0.66752105  0.51416734     0.07000
C735        C  0.34154302  0.68470399  0.96773800    -0.02790
C736        C  0.37539231  0.68545346  0.94529693    -0.02800
C737        C  0.40464691  0.67026946  0.97163951     0.07130
C738        C  0.39993347  0.65705397  0.02231204    -0.02990
Br739      Br  0.43877414  0.64172089  0.06744176    -0.01540
Br740      Br  0.35926765  0.61872775  0.58779865    -0.01610
Br741      Br  0.37998818  0.70411760  0.87654473    -0.01570
Br742      Br  0.30040977  0.70235030  0.93062956    -0.01560
C743        C  0.09129356  0.56052900  0.01243313    -0.02680
C744        C  0.09207796  0.56232290  0.95675769     0.07000
C745        C  0.12454916  0.56061555  0.93084763    -0.02790
C746        C  0.15513420  0.56647439  0.95957061    -0.02800
C747        C  0.15294503  0.57178651  0.51467609     0.07130
C748        C  0.12200193  0.56538430  0.54180116    -0.02990
Br749      Br  0.12018394  0.56743429  0.61776762    -0.01540
Br750      Br  0.04690115  0.55647304  0.04789959    -0.01610
Br751      Br  0.19884752  0.57029382  0.92198296    -0.01570
Br752      Br  0.12601106  0.55474655  0.85552275    -0.01560
C753        C  0.45890571  0.00071617  0.92115363    -0.02680
C754        C  0.45961193  0.52789235  0.95182935     0.07000
C755        C  0.45277407  0.52558540  0.00655719    -0.02790
C756        C  0.45337844  0.49656096  0.53184010    -0.02800
C757        C  0.45818789  0.96922340  0.50172504     0.07130
C758        C  0.45604568  0.97189215  0.94609220    -0.02990
Br759      Br  0.44824750  0.93619913  0.90338047    -0.01540
Br760      Br  0.46514056  0.00114223  0.84551427    -0.01610
Br761      Br  0.94879844  0.49564340  0.60790254    -0.01570
Br762      Br  0.94204380  0.56211250  0.54776317    -0.01560
C763        C  0.52772447  0.75327592  0.54143623    -0.02680
C764        C  0.04656749  0.77580643  0.51534028     0.07000
C765        C  0.06187766  0.76865416  0.96596935    -0.02790
C766        C  0.05729926  0.73972047  0.94195375    -0.02800
C767        C  0.03585245  0.71797241  0.96630722     0.07130
C768        C  0.51998749  0.72607585  0.01522952    -0.02990
Br769      Br  0.48031585  0.70515421  0.54132948    -0.01540
Br770      Br  0.50856358  0.76033357  0.61149137    -0.01610
Br771      Br  0.07834097  0.73179782  0.87382836    -0.01570
Br772      Br  0.08904171  0.79896362  0.93141297    -0.01560
C773        C  0.37753232  0.88823717  0.78100335    -0.02680
C774        C  0.34709357  0.89112396  0.74813167     0.07000
C775        C  0.35166596  0.89633147  0.69379424    -0.02790
C776        C  0.38623980  0.89577098  0.67217737    -0.02800
C777        C  0.41651559  0.88884638  0.70447273     0.07130
C778        C  0.41189899  0.88575464  0.75919758    -0.02990
Br779      Br  0.45269254  0.87681172  0.80378143    -0.01540
Br780      Br  0.37202044  0.89013305  0.85635600    -0.01610
Br781      Br  0.39212076  0.90405560  0.59802123    -0.01570
Br782      Br  0.31049655  0.90405449  0.64950526    -0.01560
C783        C  0.16330160  0.85915673  0.69027258    -0.02680
C784        C  0.16921746  0.85988219  0.74508043     0.07000
C785        C  0.13980514  0.85882186  0.77923539    -0.02790
C786        C  0.10476964  0.86087860  0.75898656    -0.02800
C787        C  0.09881749  0.86248999  0.70417352     0.07130
C788        C  0.12829483  0.85951159  0.66997615    -0.02990
Br789      Br  0.12065925  0.85467543  0.59523123    -0.01540
Br790      Br  0.20314771  0.85837678  0.64336199    -0.01610
Br791      Br  0.06492658  0.86236973  0.80610839    -0.01570
Br792      Br  0.14762619  0.85409561  0.85410226    -0.01560
C793        C  0.41770512  0.81315569  0.95240008    -0.02680
C794        C  0.41921944  0.81943002  0.50672682     0.07000
C795        C  0.38816811  0.82282184  0.53597947    -0.02790
C796        C  0.35620091  0.82947404  0.00941919    -0.02800
C797        C  0.35475584  0.82699027  0.95347488     0.07130
C798        C  0.38499913  0.81560880  0.92578935    -0.02990
Br799      Br  0.38328496  0.80715484  0.85111102    -0.01540
Br800      Br  0.46103786  0.80372266  0.91454744    -0.01610
Br801      Br  0.31598127  0.84452686  0.05099224    -0.01570
Br802      Br  0.39007337  0.82101860  0.61204763    -0.01560
C803        C  0.12675905  0.93189256  0.53015993    -0.02680
C804        C  0.09500480  0.93040545  0.50185150     0.07000
C805        C  0.09475761  0.93379632  0.94652516    -0.02790
C806        C  0.12676345  0.93168770  0.91894170    -0.02800
C807        C  0.15833675  0.92485368  0.94734710     0.07130
C808        C  0.15874824  0.92803846  0.00294760    -0.02990
Br809      Br  0.20278654  0.92560100  0.04229737    -0.01540
Br810      Br  0.12634751  0.93662071  0.60579532    -0.01610
Br811      Br  0.12663731  0.93572660  0.84314175    -0.01570
Br812      Br  0.05031549  0.93874841  0.90890128    -0.01560
C813        C  0.24675277  0.50992116  0.00684259    -0.02680
C814        C  0.27715906  0.52574343  0.51735100     0.07000
C815        C  0.30962998  0.51413711  0.99572426    -0.02790
C816        C  0.31065765  0.98663904  0.96506742    -0.02800
C817        C  0.27856224  0.97416031  0.94910446     0.07130
C818        C  0.24671007  0.98854931  0.96657370    -0.02990
Br819      Br  0.20331110  0.98580715  0.92817395    -0.01540
Br820      Br  0.20673481  0.51213654  0.05278546    -0.01610
Br821      Br  0.35501048  0.96699815  0.94372226    -0.01570
Br822      Br  0.35199054  0.53498577  0.50988684    -0.01560
C823        C  0.19940759  0.75931177  0.92872995    -0.02680
C824        C  0.22618526  0.77812906  0.94736792     0.07000
C825        C  0.24600930  0.76802340  0.99202924    -0.02790
C826        C  0.23528963  0.74399684  0.52350838    -0.02800
C827        C  0.21118025  0.72365683  0.50309018     0.07130
C828        C  0.19342756  0.73123134  0.95521333    -0.02990
Br829      Br  0.16099873  0.70298601  0.92705693    -0.01540
Br830      Br  0.17265319  0.77025715  0.86587192    -0.01610
Br831      Br  0.25683755  0.73840679  0.59256942    -0.01570
Br832      Br  0.29438981  0.77793192  0.99923468    -0.01560
Fe833      Fe  0.74535489  0.41415630  0.32970970     1.65780
Fe834      Fe  0.75653415  0.37541422  0.44355920     1.73250
Fe835      Fe  0.76945279  0.33677394  0.33095728     1.54420
O836        O  0.72804164  0.34366334  0.27527864    -0.82510
O837        O  0.80891698  0.36443708  0.44286569    -0.80810
O838        O  0.70896000  0.39294912  0.28363218    -0.85120
O839        O  0.78827739  0.40760400  0.27730581    -0.79870
O840        O  0.73471966  0.31083483  0.37226174    -0.81640
O841        O  0.76640677  0.42173044  0.45245421    -0.84390
C842        C  0.81164330  0.38544458  0.27126247     0.96380
C843        C  0.70471155  0.36575827  0.26795880     1.03820
O844        O  0.75685937  0.37547230  0.36745289    -1.13370
O845        O  0.70422020  0.38708936  0.44305891    -0.75800
O846        O  0.70303720  0.42423687  0.38119881    -0.79290
O847        O  0.80725136  0.35827822  0.28773749    -0.79980
C848        C  0.69002539  0.41117558  0.42148036     0.95280
O849        O  0.77842769  0.44075199  0.37416862    -0.77940
O850        O  0.74580384  0.32901614  0.45137721    -0.83130
C851        C  0.82293236  0.33944992  0.42533911     0.97900
C852        C  0.73528368  0.30775271  0.42188042     1.03820
O853        O  0.80990397  0.32510706  0.38642969    -0.78770
C854        C  0.77612789  0.44358200  0.42370969     1.02120
Fe855      Fe  0.50606050  0.08654865  0.33900953     1.65780
Fe856      Fe  0.50248782  0.12075914  0.45570076     1.73250
Fe857      Fe  0.98784659  0.16457971  0.34825418     1.54420
O858        O  0.52696287  0.15702589  0.29016061    -0.82510
O859        O  0.95144023  0.13481765  0.45813627    -0.80810
O860        O  0.54488528  0.10703633  0.29643517    -0.85010
O861        O  0.96425356  0.09871341  0.28543358    -0.79870
O862        O  0.02504178  0.18728219  0.38992971    -0.81640
O863        O  0.98759399  0.07537993  0.45979945    -0.84390
C864        C  0.94171576  0.12179412  0.28312199     0.96380
C865        C  0.54954735  0.13452899  0.28166332     1.03820
O866        O  0.49940373  0.12416307  0.38029470    -1.13370
O867        O  0.55321360  0.10519778  0.45131609    -0.75800
O868        O  0.54656313  0.06863048  0.39068754    -0.79290
O869        O  0.94745508  0.14708619  0.30529528    -0.79980
C870        C  0.56236643  0.07945018  0.43079817     0.95280
O871        O  0.46903283  0.06344879  0.38069092    -0.77940
O872        O  0.51776198  0.16584332  0.46757609    -0.83130
C873        C  0.93716885  0.16040195  0.44339723     0.97900
C874        C  0.52654870  0.18854100  0.43965558     1.03820
O875        O  0.94967482  0.17624153  0.40603703    -0.78770
C876        C  0.97187719  0.05744406  0.42942599     1.02120
Fe877      Fe  0.00326595  0.33666508  0.12207981     1.65780
Fe878      Fe  0.50844650  0.37394432  0.00621059     1.73250
Fe879      Fe  0.51178407  0.41392999  0.11889686     1.54420
O880        O  0.97280333  0.40498458  0.17485241    -0.82510
O881        O  0.55746243  0.39018405  0.00665469    -0.80810
O882        O  0.96033965  0.35599270  0.16324417    -0.85010
O883        O  0.54153427  0.34667235  0.17868514    -0.79870
O884        O  0.47111692  0.43552784  0.07580205    -0.81640
O885        O  0.52858595  0.32832697  0.00078473    -0.84390
C886        C  0.56249620  0.36851110  0.18142005     0.96380
C887        C  0.95223309  0.38294999  0.18008223     1.03820
O888        O  0.00762437  0.37485341  0.08275121    -1.13370
O889        O  0.95947322  0.35765633  0.00485947    -0.75800
O890        O  0.96620315  0.32146526  0.06817764    -0.79290
O891        O  0.55459824  0.39509071  0.16211226    -0.79980
C892        C  0.95035305  0.33332899  0.02776541     0.95280
O893        O  0.04436440  0.31454267  0.08172288    -0.77940
O894        O  0.98746822  0.41909178  0.99735036    -0.83130
C895        C  0.56545500  0.41572894  0.02626099     0.97900
C896        C  0.97184052  0.43928903  0.02636743     1.03820
O897        O  0.54901300  0.42856446  0.06485589    -0.78770
C898        C  0.54149969  0.30831496  0.03329127     1.02120
Fe899      Fe  0.74597081  0.16673743  0.12113167     1.65780
Fe900      Fe  0.74030989  0.12413518  0.01164795     1.73250
Fe901      Fe  0.73903925  0.08956758  0.13094118     1.54410
O902        O  0.78267206  0.10009166  0.17931281    -0.82510
O903        O  0.68986568  0.11236748  0.01713934    -0.80810
O904        O  0.78458437  0.15077125  0.17394255    -0.85010
O905        O  0.70433887  0.16135941  0.17299580    -0.79870
O906        O  0.77542076  0.06263375  0.08740163    -0.81640
O907        O  0.72522129  0.17016015  0.99664737    -0.84390
C908        C  0.68854560  0.13788865  0.18811968     0.96380
C909        C  0.79801337  0.12490742  0.18944670     1.03820
O910        O  0.74233407  0.12669402  0.08851255    -1.13370
O911        O  0.79037175  0.13629932  0.00807517    -0.75800
O912        O  0.78734690  0.17443534  0.06850585    -0.79290
O913        O  0.70029206  0.11048416  0.17872636    -0.79980
C914        C  0.80248699  0.15949389  0.03058178     0.95280
O915        O  0.70780530  0.18791597  0.07330913    -0.77940
O916        O  0.75660358  0.07759110  0.00834937    -0.83130
C917        C  0.68109597  0.08810550  0.04046668     0.97900
C918        C  0.77119178  0.05735593  0.03882990     1.03820
O919        O  0.69712426  0.07676590  0.08171328    -0.78770
C920        C  0.71278475  0.19198795  0.02493244     1.02120
C921        C  0.88304602  0.09689155  0.26689246    -0.02680
C922        C  0.90655320  0.12014792  0.25512274     0.07000
C923        C  0.89374398  0.14538712  0.22391341    -0.02790
C924        C  0.85794773  0.14834198  0.20697028    -0.02800
C925        C  0.83439468  0.12419057  0.21623434     0.07130
C926        C  0.84766193  0.09855909  0.24707570    -0.02990
Br927      Br  0.81690635  0.06653822  0.26701243    -0.01540
Br928      Br  0.89818479  0.06346534  0.31346005    -0.01610
Br929      Br  0.84338817  0.18640020  0.17036659    -0.01570
Br930      Br  0.92633720  0.17578398  0.20207428    -0.01560
C931        C  0.58829437  0.14492106  0.20311054    -0.02680
C932        C  0.58448668  0.14044588  0.25778189     0.07000
C933        C  0.61509588  0.13925452  0.29044105    -0.02790
C934        C  0.64926395  0.13935817  0.26823101    -0.02800
C935        C  0.65314226  0.14220345  0.21331830     0.07130
C936        C  0.62245945  0.14634671  0.18109918    -0.02990
Br937      Br  0.62736079  0.15313144  0.10627099    -0.01540
Br938      Br  0.54681472  0.14788093  0.15837604    -0.01610
Br939      Br  0.69088595  0.13537795  0.31267056    -0.01570
Br940      Br  0.61009836  0.13835526  0.36605469    -0.01560
C941        C  0.86606788  0.15243252  0.03957441    -0.02680
C942        C  0.83715839  0.16752094  0.01416804     0.07000
C943        C  0.84154297  0.18470376  0.46773853    -0.02790
C944        C  0.87539221  0.18545322  0.44529732    -0.02800
C945        C  0.90464688  0.17026936  0.47163994     0.07130
C946        C  0.89993356  0.15705402  0.52231261    -0.02990
Br947      Br  0.93877439  0.14172108  0.56744220    -0.01540
Br948      Br  0.85926794  0.11872796  0.08779976    -0.01610
Br949      Br  0.87998794  0.20411707  0.37654486    -0.01570
Br950      Br  0.80040963  0.20234993  0.43063009    -0.01560
C951        C  0.59129341  0.06052879  0.51243332    -0.02680
C952        C  0.59207782  0.06232272  0.45675789     0.07000
C953        C  0.62454903  0.06061557  0.43084787    -0.02790
C954        C  0.65513401  0.06647457  0.45957087    -0.02800
C955        C  0.65294478  0.07178670  0.01467634     0.07130
C956        C  0.62200172  0.06538431  0.04180137    -0.02990
Br957      Br  0.62018364  0.06743431  0.11776783    -0.01540
Br958      Br  0.54690102  0.05647246  0.54789967    -0.01610
Br959      Br  0.69884732  0.07029411  0.42198325    -0.01570
Br960      Br  0.62601098  0.05474656  0.35552298    -0.01560
C961        C  0.95890593  0.50071612  0.42115427    -0.02680
C962        C  0.95961125  0.02789236  0.45182887     0.07000
C963        C  0.95277215  0.02558547  0.50655638    -0.02790
C964        C  0.95337521  0.99656101  0.03183904    -0.02800
C965        C  0.95819007  0.46922331  0.00172588     0.07130
C966        C  0.95604666  0.47189205  0.44609311    -0.02990
Br967      Br  0.94824806  0.43619894  0.40338181    -0.01540
Br968      Br  0.96513874  0.50114228  0.34551453    -0.01610
Br969      Br  0.44879100  0.99564314  0.10790084    -0.01570
Br970      Br  0.44204216  0.06211270  0.04776215    -0.01560
C971        C  0.02772484  0.25327556  0.04143647    -0.02680
C972        C  0.54656830  0.27580587  0.01534078     0.07000
C973        C  0.56187859  0.26865349  0.46596996    -0.02790
C974        C  0.55729987  0.23971989  0.44195424    -0.02800
C975        C  0.53585260  0.21797208  0.46630742     0.07130
C976        C  0.01998746  0.22607570  0.51522950    -0.02990
Br977      Br  0.98031493  0.20515484  0.04132833    -0.01540
Br978      Br  0.00856391  0.26033325  0.11149155    -0.01610
Br979      Br  0.57834167  0.23179707  0.37382898    -0.01570
Br980      Br  0.58904326  0.29896266  0.43141399    -0.01560
C981        C  0.87753344  0.38823698  0.28100359    -0.02680
C982        C  0.84709471  0.39112371  0.24813187     0.07000
C983        C  0.85166713  0.39633116  0.19379443    -0.02790
C984        C  0.88624098  0.39577061  0.17217759    -0.02800
C985        C  0.91651675  0.38884605  0.20447301     0.07130
C986        C  0.91190013  0.38575445  0.25919787    -0.02990
Br987      Br  0.95269367  0.37681176  0.30378184    -0.01540
Br988      Br  0.87202151  0.39013293  0.35635623    -0.01610
Br989      Br  0.89212198  0.40405519  0.09802145    -0.01570
Br990      Br  0.81049774  0.40405418  0.14950541    -0.01560
C991        C  0.66330273  0.35915627  0.19027294    -0.02680
C992        C  0.66921861  0.35988179  0.24508078     0.07000
C993        C  0.63980631  0.35882146  0.27923578    -0.02790
C994        C  0.60477081  0.36087813  0.25898700    -0.02800
C995        C  0.59881863  0.36248946  0.20417397     0.07130
C996        C  0.62829595  0.35951105  0.16997657    -0.02990
Br997      Br  0.62066034  0.35467483  0.09523167    -0.01540
Br998      Br  0.70314880  0.35837635  0.14336229    -0.01610
Br999      Br  0.56492776  0.36236926  0.30610887    -0.01570
Br1000     Br  0.64762740  0.35409530  0.35410267    -0.01560
C1001       C  0.91770633  0.31315554  0.45240017    -0.02680
C1002       C  0.91922064  0.31942986  0.00672691     0.07000
C1003       C  0.88816931  0.32282162  0.03597959    -0.02790
C1004       C  0.85620211  0.32947379  0.50941931    -0.02800
C1005       C  0.85475703  0.32699002  0.45347501     0.07130
C1006       C  0.88500033  0.31560860  0.42578947    -0.02990
Br1007     Br  0.88328615  0.30715466  0.35111113    -0.01540
Br1008     Br  0.96103907  0.30372251  0.41454752    -0.01610
Br1009     Br  0.81598250  0.34452668  0.55099236    -0.01570
Br1010     Br  0.89007457  0.32101829  0.11204774    -0.01560
C1011       C  0.62676040  0.43189216  0.03016037    -0.02680
C1012       C  0.59500613  0.43040495  0.00185202     0.07000
C1013       C  0.59475884  0.43379583  0.44652569    -0.02790
C1014       C  0.62676464  0.43168734  0.41894214    -0.02800
C1015       C  0.65833800  0.42485344  0.44734744     0.07130
C1016       C  0.65874956  0.42803821  0.50294794    -0.02990
Br1017     Br  0.70278792  0.42560090  0.54229757    -0.01540
Br1018     Br  0.62634893  0.43662014  0.10579579    -0.01610
Br1019     Br  0.62663839  0.43572625  0.34314218    -0.01570
Br1020     Br  0.55031666  0.43874772  0.40890192    -0.01560
C1021       C  0.74675209  0.00992116  0.50684318    -0.02680
C1022       C  0.77715848  0.02574332  0.01735145     0.07000
C1023       C  0.80962929  0.01413699  0.49572441    -0.02790
C1024       C  0.81065853  0.48663912  0.46506741    -0.02800
C1025       C  0.77856321  0.47416026  0.44910433     0.07130
C1026       C  0.74671095  0.48854924  0.46657325    -0.02990
Br1027     Br  0.70331213  0.48580698  0.42817316    -0.01540
Br1028     Br  0.70673428  0.01213659  0.55278633    -0.01610
Br1029     Br  0.85501146  0.46699831  0.44372258    -0.01570
Br1030     Br  0.85198994  0.03498550  0.00988687    -0.01560
C1031       C  0.69940859  0.25931171  0.42873003    -0.02680
C1032       C  0.72618621  0.27812898  0.44736823     0.07000
C1033       C  0.74601004  0.26802333  0.49202977    -0.02790
C1034       C  0.73529013  0.24399684  0.02350891    -0.02800
C1035       C  0.71118075  0.22365687  0.00309055     0.07130
C1036       C  0.69342835  0.23123133  0.45521344    -0.02990
Br1037     Br  0.66099972  0.20298595  0.42705663    -0.01540
Br1038     Br  0.67265454  0.27025699  0.36587162    -0.01610
Br1039     Br  0.75683780  0.23840677  0.09257012    -0.01570
Br1040     Br  0.79439058  0.27793172  0.49923558    -0.01560
Fe1041     Fe  0.74535489  0.41415628  0.82970971     1.65780
Fe1042     Fe  0.75653414  0.37541420  0.94355921     1.73250
Fe1043     Fe  0.76945279  0.33677392  0.83095729     1.54420
O1044       O  0.72804164  0.34366333  0.77527865    -0.82510
O1045       O  0.80891697  0.36443706  0.94286570    -0.80810
O1046       O  0.70896000  0.39294910  0.78363219    -0.85120
O1047       O  0.78827739  0.40760399  0.77730582    -0.79870
O1048       O  0.73471965  0.31083481  0.87226174    -0.81640
O1049       O  0.76640676  0.42173042  0.95245422    -0.84390
C1050       C  0.81164330  0.38544457  0.77126249     0.96380
C1051       C  0.70471155  0.36575825  0.76795880     1.03820
O1052       O  0.75685936  0.37547228  0.86745290    -1.13370
O1053       O  0.70422019  0.38708934  0.94305891    -0.75800
O1054       O  0.70303720  0.42423685  0.88119881    -0.79290
O1055       O  0.80725136  0.35827820  0.78773751    -0.79980
C1056       C  0.69002538  0.41117556  0.92148036     0.95280
O1057       O  0.77842768  0.44075197  0.87416864    -0.77940
O1058       O  0.74580383  0.32901612  0.95137722    -0.83130
C1059       C  0.82293235  0.33944989  0.92533912     0.97900
C1060       C  0.73528367  0.30775268  0.92188042     1.03820
O1061       O  0.80990396  0.32510704  0.88642970    -0.78770
C1062       C  0.77612789  0.44358198  0.92370971     1.02120
Fe1063     Fe  0.50606050  0.08654865  0.83900955     1.65780
Fe1064     Fe  0.50248783  0.12075915  0.95570078     1.73250
Fe1065     Fe  0.98784659  0.16457971  0.84825416     1.54420
O1066       O  0.52696287  0.15702589  0.79016063    -0.82510
O1067       O  0.95144021  0.13481765  0.95813623    -0.80810
O1068       O  0.54488528  0.10703633  0.79643519    -0.85010
O1069       O  0.96425356  0.09871341  0.78543357    -0.79870
O1070       O  0.02504178  0.18728219  0.88992970    -0.81640
O1071       O  0.98759398  0.07537993  0.95979943    -0.84390
C1072       C  0.94171576  0.12179412  0.78312198     0.96380
C1073       C  0.54954735  0.13452899  0.78166334     1.03820
O1074       O  0.49940373  0.12416307  0.88029472    -1.13370
O1075       O  0.55321360  0.10519778  0.95131612    -0.75800
O1076       O  0.54656314  0.06863048  0.89068756    -0.79290
O1077       O  0.94745508  0.14708619  0.80529526    -0.79980
C1078       C  0.56236643  0.07945019  0.93079820     0.95280
O1079       O  0.46903283  0.06344880  0.88069094    -0.77940
O1080       O  0.51776198  0.16584332  0.96757610    -0.83130
C1081       C  0.93716884  0.16040195  0.94339721     0.97900
C1082       C  0.52654870  0.18854101  0.93965560     1.03820
O1083       O  0.94967481  0.17624153  0.90603701    -0.78770
C1084       C  0.97187719  0.05744406  0.92942597     1.02120
Fe1085     Fe  0.00326595  0.33666507  0.62207982     1.65780
Fe1086     Fe  0.50844651  0.37394432  0.50621059     1.73250
Fe1087     Fe  0.51178408  0.41392998  0.61889687     1.54420
O1088       O  0.97280333  0.40498456  0.67485244    -0.82510
O1089       O  0.55746244  0.39018405  0.50665469    -0.80810
O1090       O  0.96033965  0.35599269  0.66324418    -0.85010
O1091       O  0.54153427  0.34667234  0.67868513    -0.79870
O1092       O  0.47111692  0.43552783  0.57580205    -0.81640
O1093       O  0.52858596  0.32832697  0.50078472    -0.84390
C1094       C  0.56249620  0.36851109  0.68142005     0.96380
C1095       C  0.95223309  0.38294998  0.68008225     1.03820
O1096       O  0.00762437  0.37485340  0.58275122    -1.13370
O1097       O  0.95947322  0.35765633  0.50485949    -0.75800
O1098       O  0.96620315  0.32146525  0.56817764    -0.79290
O1099       O  0.55459825  0.39509070  0.66211226    -0.79980
C1100       C  0.95035305  0.33332899  0.52776542     0.95280
O1101       O  0.04436440  0.31454267  0.58172288    -0.77940
O1102       O  0.98746822  0.41909178  0.49735039    -0.83130
C1103       C  0.56545501  0.41572893  0.52626099     0.97900
C1104       C  0.97184051  0.43928903  0.52636746     1.03820
O1105       O  0.54901301  0.42856446  0.56485590    -0.78770
C1106       C  0.54149969  0.30831495  0.53329126     1.02120
Fe1107     Fe  0.74597080  0.16673744  0.62113167     1.65780
Fe1108     Fe  0.74030988  0.12413520  0.51164794     1.73250
Fe1109     Fe  0.73903925  0.08956760  0.63094116     1.54410
O1110       O  0.78267206  0.10009167  0.67931279    -0.82510
O1111       O  0.68986566  0.11236751  0.51713934    -0.80810
O1112       O  0.78458436  0.15077126  0.67394255    -0.85010
O1113       O  0.70433886  0.16135942  0.67299580    -0.79870
O1114       O  0.77542074  0.06263376  0.58740160    -0.81640
O1115       O  0.72522129  0.17016017  0.49664737    -0.84390
C1116       C  0.68854559  0.13788866  0.68811967     0.96380
C1117       C  0.79801336  0.12490742  0.68944669     1.03820
O1118       O  0.74233406  0.12669404  0.58851255    -1.13370
O1119       O  0.79037174  0.13629934  0.50807517    -0.75800
O1120       O  0.78734690  0.17443535  0.56850585    -0.79290
O1121       O  0.70029206  0.11048417  0.67872635    -0.79980
C1122       C  0.80248698  0.15949390  0.53058178     0.95280
O1123       O  0.70780530  0.18791599  0.57330913    -0.77940
O1124       O  0.75660356  0.07759112  0.50834936    -0.83130
C1125       C  0.68109595  0.08810553  0.54046667     0.97900
C1126       C  0.77119176  0.05735595  0.53882988     1.03820
O1127       O  0.69712425  0.07676591  0.58171326    -0.78770
C1128       C  0.71278475  0.19198797  0.52493244     1.02120
C1129       C  0.88304602  0.09689155  0.76689245    -0.02680
C1130       C  0.90655320  0.12014792  0.75512272     0.07000
C1131       C  0.89374398  0.14538712  0.72391339    -0.02790
C1132       C  0.85794772  0.14834198  0.70697027    -0.02800
C1133       C  0.83439468  0.12419057  0.71623432     0.07130
C1134       C  0.84766193  0.09855909  0.74707569    -0.02990
Br1135     Br  0.81690634  0.06653823  0.76701241    -0.01540
Br1136     Br  0.89818479  0.06346534  0.81346003    -0.01610
Br1137     Br  0.84338816  0.18640020  0.67036658    -0.01570
Br1138     Br  0.92633719  0.17578398  0.70207427    -0.01560
C1139       C  0.58829436  0.14492107  0.70311056    -0.02680
C1140       C  0.58448668  0.14044588  0.75778191     0.07000
C1141       C  0.61509588  0.13925451  0.79044105    -0.02790
C1142       C  0.64926395  0.13935817  0.76823102    -0.02800
C1143       C  0.65314226  0.14220346  0.71331831     0.07130
C1144       C  0.62245944  0.14634673  0.68109919    -0.02990
Br1145     Br  0.62736078  0.15313146  0.60627100    -0.01540
Br1146     Br  0.54681472  0.14788095  0.65837606    -0.01610
Br1147     Br  0.69088596  0.13537793  0.81267055    -0.01570
Br1148     Br  0.61009836  0.13835525  0.86605470    -0.01560
C1149       C  0.86606787  0.15243251  0.53957441    -0.02680
C1150       C  0.83715839  0.16752094  0.51416805     0.07000
C1151       C  0.84154296  0.18470375  0.96773851    -0.02790
C1152       C  0.87539220  0.18545321  0.94529730    -0.02800
C1153       C  0.90464687  0.17026936  0.97163992     0.07130
C1154       C  0.89993357  0.15705403  0.02231260    -0.02990
Br1155     Br  0.93877440  0.14172108  0.06744218    -0.01540
Br1156     Br  0.85926793  0.11872795  0.58779975    -0.01610
Br1157     Br  0.87998792  0.20411705  0.87654483    -0.01570
Br1158     Br  0.80040962  0.20234991  0.93063007    -0.01560
C1159       C  0.59129341  0.06052879  0.01243335    -0.02680
C1160       C  0.59207782  0.06232272  0.95675792     0.07000
C1161       C  0.62454903  0.06061555  0.93084789    -0.02790
C1162       C  0.65513402  0.06647453  0.95957089    -0.02800
C1163       C  0.65294477  0.07178673  0.51467632     0.07130
C1164       C  0.62200171  0.06538433  0.54180135    -0.02990
Br1165     Br  0.62018363  0.06743433  0.61776780    -0.01540
Br1166     Br  0.54690102  0.05647249  0.04789971    -0.01610
Br1167     Br  0.69884733  0.07029405  0.92198328    -0.01570
Br1168     Br  0.62601097  0.05474654  0.85552301    -0.01560
C1169       C  0.95890593  0.50071612  0.92115423    -0.02680
C1170       C  0.95961125  0.02789236  0.95182886     0.07000
C1171       C  0.95277216  0.02558548  0.00655637    -0.02790
C1172       C  0.95337520  0.99656100  0.53183905    -0.02800
C1173       C  0.95819007  0.46922331  0.50172592     0.07130
C1174       C  0.95604666  0.47189205  0.94609308    -0.02990
Br1175     Br  0.94824807  0.43619894  0.90338177    -0.01540
Br1176     Br  0.96513875  0.50114229  0.84551449    -0.01610
Br1177     Br  0.44879096  0.99564313  0.60790080    -0.01570
Br1178     Br  0.44204215  0.06211269  0.54776212    -0.01560
C1179       C  0.02772486  0.25327556  0.54143649    -0.02680
C1180       C  0.54656830  0.27580587  0.51534077     0.07000
C1181       C  0.56187859  0.26865349  0.96596998    -0.02790
C1182       C  0.55729987  0.23971990  0.94195425    -0.02800
C1183       C  0.53585261  0.21797209  0.96630744     0.07130
C1184       C  0.01998743  0.22607571  0.01522947    -0.02990
Br1185     Br  0.98031499  0.20515480  0.54132841    -0.01540
Br1186     Br  0.00856393  0.26033324  0.61149157    -0.01610
Br1187     Br  0.57834166  0.23179708  0.87382899    -0.01570
Br1188     Br  0.58904325  0.29896267  0.93141400    -0.01560
C1189       C  0.87753344  0.38823696  0.78100361    -0.02680
C1190       C  0.84709471  0.39112370  0.74813189     0.07000
C1191       C  0.85166713  0.39633115  0.69379445    -0.02790
C1192       C  0.88624098  0.39577060  0.67217761    -0.02800
C1193       C  0.91651675  0.38884604  0.70447303     0.07130
C1194       C  0.91190013  0.38575442  0.75919789    -0.02990
Br1195     Br  0.95269367  0.37681173  0.80378185    -0.01540
Br1196     Br  0.87202151  0.39013290  0.85635625    -0.01610
Br1197     Br  0.89212198  0.40405519  0.59802147    -0.01570
Br1198     Br  0.81049774  0.40405418  0.64950544    -0.01560
C1199       C  0.66330273  0.35915626  0.69027294    -0.02680
C1200       C  0.66921861  0.35988178  0.74508078     0.07000
C1201       C  0.63980632  0.35882144  0.77923578    -0.02790
C1202       C  0.60477081  0.36087811  0.75898699    -0.02800
C1203       C  0.59881863  0.36248944  0.70417396     0.07130
C1204       C  0.62829596  0.35951104  0.66997656    -0.02990
Br1205     Br  0.62066034  0.35467482  0.59523166    -0.01540
Br1206     Br  0.70314881  0.35837635  0.64336229    -0.01610
Br1207     Br  0.56492776  0.36236924  0.80610887    -0.01570
Br1208     Br  0.64762740  0.35409528  0.85410267    -0.01560
C1209       C  0.91770633  0.31315553  0.95240017    -0.02680
C1210       C  0.91922064  0.31942986  0.50672692     0.07000
C1211       C  0.88816931  0.32282163  0.53597958    -0.02790
C1212       C  0.85620211  0.32947378  0.00941932    -0.02800
C1213       C  0.85475703  0.32699000  0.95347502     0.07130
C1214       C  0.88500032  0.31560859  0.92578947    -0.02990
Br1215     Br  0.88328614  0.30715463  0.85111114    -0.01540
Br1216     Br  0.96103906  0.30372251  0.91454752    -0.01610
Br1217     Br  0.81598249  0.34452665  0.05099237    -0.01570
Br1218     Br  0.89007456  0.32101829  0.61204774    -0.01560
C1219       C  0.62676040  0.43189216  0.53016037    -0.02680
C1220       C  0.59500614  0.43040495  0.50185203     0.07000
C1221       C  0.59475884  0.43379583  0.94652568    -0.02790
C1222       C  0.62676464  0.43168733  0.91894213    -0.02800
C1223       C  0.65833800  0.42485342  0.94734744     0.07130
C1224       C  0.65874955  0.42803819  0.00294793    -0.02990
Br1225     Br  0.70278791  0.42560088  0.04229757    -0.01540
Br1226     Br  0.62634894  0.43662013  0.60579580    -0.01610
Br1227     Br  0.62663839  0.43572623  0.84314217    -0.01570
Br1228     Br  0.55031666  0.43874773  0.90890191    -0.01560
C1229       C  0.74675212  0.00992113  0.00684330    -0.02680
C1230       C  0.77715846  0.02574334  0.51735141     0.07000
C1231       C  0.80962929  0.01413699  0.99572436    -0.02790
C1232       C  0.81065853  0.48663909  0.96506743    -0.02800
C1233       C  0.77856321  0.47416024  0.94910434     0.07130
C1234       C  0.74671095  0.48854922  0.96657327    -0.02990
Br1235     Br  0.70331213  0.48580696  0.92817319    -0.01540
Br1236     Br  0.70673433  0.01213656  0.05278650    -0.01610
Br1237     Br  0.85501146  0.46699828  0.94372259    -0.01570
Br1238     Br  0.85198994  0.03498546  0.50988704    -0.01560
C1239       C  0.69940858  0.25931169  0.92873003    -0.02680
C1240       C  0.72618620  0.27812895  0.94736822     0.07000
C1241       C  0.74601003  0.26802331  0.99202976    -0.02790
C1242       C  0.73529013  0.24399686  0.52350892    -0.02800
C1243       C  0.71118075  0.22365689  0.50309056     0.07130
C1244       C  0.69342835  0.23123131  0.95521344    -0.02990
Br1245     Br  0.66099971  0.20298593  0.92705663    -0.01540
Br1246     Br  0.67265453  0.27025697  0.86587162    -0.01610
Br1247     Br  0.75683780  0.23840678  0.59257012    -0.01570
Br1248     Br  0.79439058  0.27793170  0.99923557    -0.01560
Fe1249     Fe  0.74535377  0.91415656  0.32970958     1.65780
Fe1250     Fe  0.75653287  0.87541440  0.44355902     1.73250
Fe1251     Fe  0.76945161  0.83677418  0.33095705     1.54420
O1252       O  0.72804044  0.84366363  0.27527844    -0.82510
O1253       O  0.80891570  0.86443727  0.44286562    -0.80810
O1254       O  0.70895889  0.89294944  0.28363193    -0.85120
O1255       O  0.78827629  0.90760428  0.27730571    -0.79870
O1256       O  0.73471850  0.81083501  0.37226147    -0.81640
O1257       O  0.76640550  0.92173059  0.45245413    -0.84390
C1258       C  0.81164216  0.88544484  0.27126231     0.96380
C1259       C  0.70471041  0.86575860  0.26795853     1.03820
O1260       O  0.75685817  0.87547252  0.36745271    -1.13370
O1261       O  0.70421890  0.88708955  0.44305859    -0.75800
O1262       O  0.70303606  0.92423715  0.38119864    -0.79290
O1263       O  0.80725019  0.85827847  0.28773728    -0.79980
C1264       C  0.69002416  0.91117582  0.42148009     0.95280
O1265       O  0.77842660  0.94075215  0.37416862    -0.77940
O1266       O  0.74580260  0.82901632  0.45137697    -0.83130
C1267       C  0.82293115  0.83945015  0.42533897     0.97900
C1268       C  0.73528253  0.80775286  0.42188015     1.03820
O1269       O  0.80990281  0.82510731  0.38642947    -0.78770
C1270       C  0.77612676  0.94358212  0.42370969     1.02120
Fe1271     Fe  0.50606059  0.58654873  0.33900937     1.65780
Fe1272     Fe  0.50248801  0.62075936  0.45570049     1.73250
Fe1273     Fe  0.98784673  0.66457986  0.34825386     1.54420
O1274       O  0.52696310  0.65702604  0.29016043    -0.82510
O1275       O  0.95144042  0.63481786  0.45813604    -0.80810
O1276       O  0.54488528  0.60703642  0.29643476    -0.85010
O1277       O  0.96425351  0.59871343  0.28543364    -0.79870
O1278       O  0.02504181  0.68728244  0.38992946    -0.81640
O1279       O  0.98759423  0.57538015  0.45979931    -0.84390
C1280       C  0.94171585  0.62179423  0.28312179     0.96380
C1281       C  0.54954746  0.63452908  0.28166299     1.03820
O1282       O  0.49940384  0.62416321  0.38029444    -1.13370
O1283       O  0.55321379  0.60519800  0.45131578    -0.75800
O1284       O  0.54656333  0.56863066  0.39068728    -0.79290
O1285       O  0.94745529  0.64708635  0.30529480    -0.79980
C1286       C  0.56236661  0.57945039  0.43079792     0.95280
O1287       O  0.46903309  0.56344870  0.38069096    -0.77940
O1288       O  0.51776213  0.66584353  0.46757578    -0.83130
C1289       C  0.93716895  0.66040211  0.44339689     0.97900
C1290       C  0.52654872  0.68854127  0.43965532     1.03820
O1291       O  0.94967487  0.67624166  0.40603660    -0.78770
C1292       C  0.97187754  0.55744411  0.42942607     1.02120
Fe1293     Fe  0.00326483  0.83666552  0.12207945     1.65780
Fe1294     Fe  0.50844505  0.87394474  0.00621018     1.73250
Fe1295     Fe  0.51178284  0.91393050  0.11889645     1.54420
O1296       O  0.97280208  0.90498502  0.17485197    -0.82510
O1297       O  0.55746088  0.89018471  0.00665392    -0.80810
O1298       O  0.96033855  0.85599309  0.16324391    -0.85010
O1299       O  0.54153316  0.84667284  0.17868471    -0.79870
O1300       O  0.47111574  0.93552856  0.07580176    -0.81640
O1301       O  0.52858476  0.82832748  0.00078429    -0.84390
C1302       C  0.56249505  0.86851160  0.18141959     0.96380
C1303       C  0.95223193  0.88295038  0.18008191     1.03820
O1304       O  0.00762307  0.87485389  0.08275080    -1.13370
O1305       O  0.95947188  0.85765657  0.00485927    -0.75800
O1306       O  0.96620201  0.82146554  0.06817744    -0.79290
O1307       O  0.55459705  0.89509119  0.16211178    -0.79980
C1308       C  0.95035183  0.83332921  0.02776525     0.95280
O1309       O  0.04436331  0.81454322  0.08172241    -0.77940
O1310       O  0.98746637  0.91909202  0.99735002    -0.83130
C1311       C  0.56545359  0.91572951  0.02626039     0.97900
C1312       C  0.97183876  0.93928936  0.02636700     1.03820
O1313       O  0.54901173  0.92856497  0.06485547    -0.78770
C1314       C  0.54149861  0.80831550  0.03329080     1.02120
Fe1315     Fe  0.74597085  0.66673749  0.12113109     1.65780
Fe1316     Fe  0.74030992  0.62413520  0.01164741     1.73250
Fe1317     Fe  0.73903953  0.58956763  0.13094069     1.54410
O1318       O  0.78267227  0.60009185  0.17931235    -0.82510
O1319       O  0.68986578  0.61236738  0.01713898    -0.80810
O1320       O  0.78458459  0.65077144  0.17394181    -0.85010
O1321       O  0.70433904  0.66135938  0.17299543    -0.79870
O1322       O  0.77542114  0.56263390  0.08740113    -0.81640
O1323       O  0.72522108  0.67016015  0.99664685    -0.84390
C1324       C  0.68854576  0.63788860  0.18811923     0.96380
C1325       C  0.79801357  0.62490762  0.18944611     1.03820
O1326       O  0.74233420  0.62669406  0.08851202    -1.13370
O1327       O  0.79037169  0.63629948  0.00807442    -0.75800
O1328       O  0.78734682  0.67443550  0.06850507    -0.79290
O1329       O  0.70029224  0.61048412  0.17872582    -0.79980
C1330       C  0.80248690  0.65949406  0.03058100     0.95280
O1331       O  0.70780515  0.68791587  0.07330871    -0.77940
O1332       O  0.75660382  0.57759114  0.00834888    -0.83130
C1333       C  0.68109620  0.58810537  0.04046632     0.97900
C1334       C  0.77119217  0.55735605  0.03882941     1.03820
O1335       O  0.69712459  0.57676578  0.08171285    -0.78770
C1336       C  0.71278446  0.69198790  0.02493199     1.02120
C1337       C  0.88304585  0.59689200  0.26689292    -0.02680
C1338       C  0.90655327  0.62014807  0.25512256     0.07000
C1339       C  0.89374430  0.64538708  0.22391262    -0.02790
C1340       C  0.85794808  0.64834200  0.20696928    -0.02800
C1341       C  0.83439485  0.62419079  0.21623380     0.07130
C1342       C  0.84766182  0.59855954  0.24707593    -0.02990
Br1343     Br  0.81690588  0.56653911  0.26701346    -0.01540
Br1344     Br  0.89818413  0.56346633  0.31346193    -0.01610
Br1345     Br  0.84338878  0.68640002  0.17036482    -0.01570
Br1346     Br  0.92633774  0.67578368  0.20207317    -0.01560
C1347       C  0.58829451  0.64492104  0.20311015    -0.02680
C1348       C  0.58448681  0.64044587  0.25778151     0.07000
C1349       C  0.61509602  0.63925448  0.29044064    -0.02790
C1350       C  0.64926410  0.63935809  0.26823059    -0.02800
C1351       C  0.65314241  0.64220337  0.21331787     0.07130
C1352       C  0.62245959  0.64634665  0.18109877    -0.02990
Br1353     Br  0.62736092  0.65313137  0.10627057    -0.01540
Br1354     Br  0.54681485  0.64788096  0.15837567    -0.01610
Br1355     Br  0.69088611  0.63537783  0.31267012    -0.01570
Br1356     Br  0.61009852  0.63835526  0.36605428    -0.01560
C1357       C  0.86606775  0.65243246  0.03957364    -0.02680
C1358       C  0.83715834  0.66752105  0.01416735     0.07000
C1359       C  0.84154303  0.68470401  0.46773801    -0.02790
C1360       C  0.87539231  0.68545347  0.44529694    -0.02800
C1361       C  0.90464692  0.67026947  0.47163952     0.07130
C1362       C  0.89993347  0.65705397  0.52231204    -0.02990
Br1363     Br  0.93877413  0.64172088  0.56744177    -0.01540
Br1364     Br  0.85926764  0.61872774  0.08779864    -0.01610
Br1365     Br  0.87998820  0.70411762  0.37654475    -0.01570
Br1366     Br  0.80040978  0.70235033  0.43062958    -0.01560
C1367       C  0.59129356  0.56052901  0.51243315    -0.02680
C1368       C  0.59207796  0.56232291  0.45675771     0.07000
C1369       C  0.62454916  0.56061556  0.43084765    -0.02790
C1370       C  0.65513420  0.56647438  0.45957062    -0.02800
C1371       C  0.65294503  0.57178653  0.01467608     0.07130
C1372       C  0.62200193  0.56538430  0.04180114    -0.02990
Br1373     Br  0.62018394  0.56743428  0.11776760    -0.01540
Br1374     Br  0.54690115  0.55647307  0.54789962    -0.01610
Br1375     Br  0.69884752  0.57029381  0.42198297    -0.01570
Br1376     Br  0.62601105  0.55474655  0.35552276    -0.01560
C1377       C  0.95890571  0.00071617  0.42115363    -0.02680
C1378       C  0.95961193  0.52789235  0.45182937     0.07000
C1379       C  0.95277408  0.52558540  0.50655721    -0.02790
C1380       C  0.95337843  0.49656096  0.03184007    -0.02800
C1381       C  0.95818790  0.96922340  0.00172505     0.07130
C1382       C  0.95604568  0.97189214  0.44609220    -0.02990
Br1383     Br  0.94824750  0.93619913  0.40338046    -0.01540
Br1384     Br  0.96514056  0.00114223  0.34551427    -0.01610
Br1385     Br  0.44879838  0.49564341  0.10790251    -0.01570
Br1386     Br  0.44204379  0.56211251  0.04776314    -0.01560
C1387       C  0.02772449  0.75327591  0.04143625    -0.02680
C1388       C  0.54656748  0.77580643  0.01534028     0.07000
C1389       C  0.56187766  0.76865416  0.46596935    -0.02790
C1390       C  0.55729925  0.73972047  0.44195375    -0.02800
C1391       C  0.53585243  0.71797241  0.46630720     0.07130
C1392       C  0.01998750  0.72607584  0.51522954    -0.02990
Br1393     Br  0.98031591  0.70515417  0.04132956    -0.01540
Br1394     Br  0.00856361  0.76033357  0.11149139    -0.01610
Br1395     Br  0.57834097  0.73179782  0.37382837    -0.01570
Br1396     Br  0.58904173  0.79896362  0.43141299    -0.01560
C1397       C  0.87753232  0.88823716  0.28100336    -0.02680
C1398       C  0.84709357  0.89112396  0.24813168     0.07000
C1399       C  0.85166596  0.89633148  0.19379425    -0.02790
C1400       C  0.88623980  0.89577098  0.17217737    -0.02800
C1401       C  0.91651559  0.88884638  0.20447274     0.07130
C1402       C  0.91189900  0.88575463  0.25919758    -0.02990
Br1403     Br  0.95269254  0.87681170  0.30378143    -0.01540
Br1404     Br  0.87202045  0.89013303  0.35635600    -0.01610
Br1405     Br  0.89212077  0.90405561  0.09802124    -0.01570
Br1406     Br  0.81049655  0.90405450  0.14950527    -0.01560
C1407       C  0.66330160  0.85915673  0.19027259    -0.02680
C1408       C  0.66921746  0.85988219  0.24508043     0.07000
C1409       C  0.63980514  0.85882186  0.27923539    -0.02790
C1410       C  0.60476964  0.86087860  0.25898657    -0.02800
C1411       C  0.59881749  0.86248998  0.20417353     0.07130
C1412       C  0.62829483  0.85951158  0.16997616    -0.02990
Br1413     Br  0.62065925  0.85467543  0.09523124    -0.01540
Br1414     Br  0.70314771  0.85837679  0.14336200    -0.01610
Br1415     Br  0.56492658  0.86236973  0.30610840    -0.01570
Br1416     Br  0.64762619  0.85409561  0.35410227    -0.01560
C1417       C  0.91770512  0.81315568  0.45240010    -0.02680
C1418       C  0.91921944  0.81943001  0.00672682     0.07000
C1419       C  0.88816811  0.82282185  0.03597947    -0.02790
C1420       C  0.85620091  0.82947405  0.50941920    -0.02800
C1421       C  0.85475584  0.82699027  0.45347489     0.07130
C1422       C  0.88499912  0.81560880  0.42578937    -0.02990
Br1423     Br  0.88328495  0.80715482  0.35111104    -0.01540
Br1424     Br  0.96103785  0.80372264  0.41454746    -0.01610
Br1425     Br  0.81598128  0.84452688  0.55099225    -0.01570
Br1426     Br  0.89007337  0.82101861  0.11204764    -0.01560
C1427       C  0.62675905  0.93189257  0.03015994    -0.02680
C1428       C  0.59500480  0.93040546  0.00185152     0.07000
C1429       C  0.59475761  0.93379632  0.44652516    -0.02790
C1430       C  0.62676345  0.93168770  0.41894170    -0.02800
C1431       C  0.65833675  0.92485369  0.44734710     0.07130
C1432       C  0.65874824  0.92803847  0.50294759    -0.02990
Br1433     Br  0.70278654  0.92560102  0.54229736    -0.01540
Br1434     Br  0.62634752  0.93662071  0.10579534    -0.01610
Br1435     Br  0.62663731  0.93572661  0.34314174    -0.01570
Br1436     Br  0.55031549  0.93874840  0.40890128    -0.01560
C1437       C  0.74675278  0.50992117  0.50684264    -0.02680
C1438       C  0.77715905  0.52574343  0.01735098     0.07000
C1439       C  0.80962998  0.51413714  0.49572421    -0.02790
C1440       C  0.81065766  0.98663904  0.46506745    -0.02800
C1441       C  0.77856224  0.97416032  0.44910445     0.07130
C1442       C  0.74671007  0.98854932  0.46657366    -0.02990
Br1443     Br  0.70331111  0.98580717  0.42817389    -0.01540
Br1444     Br  0.70673485  0.51213655  0.55278555    -0.01610
Br1445     Br  0.85501048  0.96699813  0.44372234    -0.01570
Br1446     Br  0.85199054  0.53498573  0.00988695    -0.01560
C1447       C  0.69940759  0.75931178  0.42872995    -0.02680
C1448       C  0.72618525  0.77812907  0.44736793     0.07000
C1449       C  0.74600928  0.76802342  0.49202927    -0.02790
C1450       C  0.73528962  0.74399685  0.02350840    -0.02800
C1451       C  0.71118025  0.72365683  0.00309019     0.07130
C1452       C  0.69342756  0.73123134  0.45521332    -0.02990
Br1453     Br  0.66099874  0.70298600  0.42705691    -0.01540
Br1454     Br  0.67265320  0.77025715  0.36587191    -0.01610
Br1455     Br  0.75683754  0.73840679  0.09256944    -0.01570
Br1456     Br  0.79438978  0.77793194  0.49923475    -0.01560
Fe1457     Fe  0.74535377  0.91415655  0.82970959     1.65780
Fe1458     Fe  0.75653286  0.87541438  0.94355902     1.73250
Fe1459     Fe  0.76945161  0.83677418  0.83095705     1.54420
O1460       O  0.72804044  0.84366363  0.77527844    -0.82510
O1461       O  0.80891570  0.86443725  0.94286563    -0.80810
O1462       O  0.70895889  0.89294944  0.78363194    -0.85120
O1463       O  0.78827629  0.90760428  0.77730573    -0.79870
O1464       O  0.73471850  0.81083499  0.87226145    -0.81640
O1465       O  0.76640549  0.92173057  0.95245415    -0.84390
C1466       C  0.81164216  0.88544484  0.77126232     0.96380
C1467       C  0.70471040  0.86575860  0.76795853     1.03820
O1468       O  0.75685817  0.87547251  0.86745271    -1.13370
O1469       O  0.70421889  0.88708953  0.94305859    -0.75800
O1470       O  0.70303605  0.92423714  0.88119866    -0.79290
O1471       O  0.80725019  0.85827847  0.78773728    -0.79980
C1472       C  0.69002415  0.91117580  0.92148010     0.95280
O1473       O  0.77842660  0.94075214  0.87416865    -0.77940
O1474       O  0.74580260  0.82901629  0.95137696    -0.83130
C1475       C  0.82293115  0.83945014  0.92533896     0.97900
C1476       C  0.73528253  0.80775284  0.92188014     1.03820
O1477       O  0.80990281  0.82510730  0.88642946    -0.78770
C1478       C  0.77612675  0.94358211  0.92370972     1.02120
Fe1479     Fe  0.50606060  0.58654873  0.83900938     1.65780
Fe1480     Fe  0.50248803  0.62075936  0.95570051     1.73250
Fe1481     Fe  0.98784673  0.66457987  0.84825385     1.54420
O1482       O  0.52696310  0.65702604  0.79016045    -0.82510
O1483       O  0.95144041  0.63481786  0.95813601    -0.80810
O1484       O  0.54488528  0.60703642  0.79643477    -0.85010
O1485       O  0.96425351  0.59871343  0.78543361    -0.79870
O1486       O  0.02504181  0.68728244  0.88992944    -0.81640
O1487       O  0.98759423  0.57538015  0.95979928    -0.84390
C1488       C  0.94171584  0.62179424  0.78312177     0.96380
C1489       C  0.54954747  0.63452908  0.78166300     1.03820
O1490       O  0.49940385  0.62416321  0.88029446    -1.13370
O1491       O  0.55321380  0.60519799  0.95131578    -0.75800
O1492       O  0.54656333  0.56863066  0.89068729    -0.79290
O1493       O  0.94745529  0.64708635  0.80529479    -0.79980
C1494       C  0.56236661  0.57945038  0.93079792     0.95280
O1495       O  0.46903310  0.56344871  0.88069097    -0.77940
O1496       O  0.51776215  0.66584352  0.96757580    -0.83130
C1497       C  0.93716895  0.66040211  0.94339687     0.97900
C1498       C  0.52654874  0.68854127  0.93965534     1.03820
O1499       O  0.94967487  0.67624166  0.90603659    -0.78770
C1500       C  0.97187754  0.55744411  0.92942604     1.02120
Fe1501     Fe  0.00326483  0.83666553  0.62207946     1.65780
Fe1502     Fe  0.50844505  0.87394474  0.50621017     1.73250
Fe1503     Fe  0.51178284  0.91393050  0.61889643     1.54420
O1504       O  0.97280208  0.90498503  0.67485198    -0.82510
O1505       O  0.55746088  0.89018471  0.50665390    -0.80810
O1506       O  0.96033855  0.85599309  0.66324392    -0.85010
O1507       O  0.54153315  0.84667284  0.67868470    -0.79870
O1508       O  0.47111574  0.93552856  0.57580174    -0.81640
O1509       O  0.52858476  0.82832748  0.50078428    -0.84390
C1510       C  0.56249505  0.86851160  0.68141958     0.96380
C1511       C  0.95223192  0.88295038  0.68008192     1.03820
O1512       O  0.00762307  0.87485389  0.58275081    -1.13370
O1513       O  0.95947188  0.85765656  0.50485928    -0.75800
O1514       O  0.96620201  0.82146554  0.56817746    -0.79290
O1515       O  0.55459705  0.89509120  0.66211176    -0.79980
C1516       C  0.95035182  0.83332921  0.52776526     0.95280
O1517       O  0.04436331  0.81454322  0.58172242    -0.77940
O1518       O  0.98746636  0.91909202  0.49735003    -0.83130
C1519       C  0.56545359  0.91572951  0.52626037     0.97900
C1520       C  0.97183875  0.93928936  0.52636701     1.03820
O1521       O  0.54901173  0.92856497  0.56485546    -0.78770
C1522       C  0.54149861  0.80831550  0.53329079     1.02120
Fe1523     Fe  0.74597085  0.66673751  0.62113108     1.65780
Fe1524     Fe  0.74030991  0.62413523  0.51164741     1.73250
Fe1525     Fe  0.73903952  0.58956764  0.63094068     1.54410
O1526       O  0.78267227  0.60009186  0.67931234    -0.82510
O1527       O  0.68986578  0.61236740  0.51713897    -0.80810
O1528       O  0.78458459  0.65077146  0.67394180    -0.85010
O1529       O  0.70433903  0.66135940  0.67299543    -0.79870
O1530       O  0.77542114  0.56263392  0.58740111    -0.81640
O1531       O  0.72522108  0.67016018  0.49664685    -0.84390
C1532       C  0.68854576  0.63788861  0.68811923     0.96380
C1533       C  0.79801357  0.62490764  0.68944610     1.03820
O1534       O  0.74233420  0.62669408  0.58851202    -1.13370
O1535       O  0.79037169  0.63629950  0.50807442    -0.75800
O1536       O  0.78734681  0.67443552  0.56850507    -0.79290
O1537       O  0.70029224  0.61048414  0.67872582    -0.79980
C1538       C  0.80248690  0.65949408  0.53058100     0.95280
O1539       O  0.70780514  0.68791589  0.57330871    -0.77940
O1540       O  0.75660382  0.57759117  0.50834887    -0.83130
C1541       C  0.68109620  0.58810539  0.54046631     0.97900
C1542       C  0.77119217  0.55735607  0.53882939     1.03820
O1543       O  0.69712459  0.57676580  0.58171284    -0.78770
C1544       C  0.71278446  0.69198792  0.52493200     1.02120
C1545       C  0.88304585  0.59689201  0.76689290    -0.02680
C1546       C  0.90655327  0.62014808  0.75512254     0.07000
C1547       C  0.89374429  0.64538710  0.72391260    -0.02790
C1548       C  0.85794808  0.64834201  0.70696927    -0.02800
C1549       C  0.83439485  0.62419080  0.71623379     0.07130
C1550       C  0.84766182  0.59855956  0.74707591    -0.02990
Br1551     Br  0.81690587  0.56653913  0.76701345    -0.01540
Br1552     Br  0.89818413  0.56346634  0.81346189    -0.01610
Br1553     Br  0.84338878  0.68640003  0.67036481    -0.01570
Br1554     Br  0.92633773  0.67578369  0.70207316    -0.01560
C1555       C  0.58829450  0.64492106  0.70311017    -0.02680
C1556       C  0.58448682  0.64044588  0.75778152     0.07000
C1557       C  0.61509603  0.63925448  0.79044064    -0.02790
C1558       C  0.64926410  0.63935809  0.76823059    -0.02800
C1559       C  0.65314241  0.64220338  0.71331788     0.07130
C1560       C  0.62245959  0.64634667  0.68109878    -0.02990
Br1561     Br  0.62736091  0.65313141  0.60627059    -0.01540
Br1562     Br  0.54681485  0.64788099  0.65837569    -0.01610
Br1563     Br  0.69088611  0.63537781  0.81267012    -0.01570
Br1564     Br  0.61009853  0.63835525  0.86605429    -0.01560
C1565       C  0.86606774  0.65243247  0.53957365    -0.02680
C1566       C  0.83715834  0.66752107  0.51416736     0.07000
C1567       C  0.84154302  0.68470398  0.96773799    -0.02790
C1568       C  0.87539231  0.68545345  0.94529692    -0.02800
C1569       C  0.90464691  0.67026946  0.97163950     0.07130
C1570       C  0.89993347  0.65705397  0.02231203    -0.02990
Br1571     Br  0.93877415  0.64172088  0.06744175    -0.01540
Br1572     Br  0.85926763  0.61872774  0.58779863    -0.01610
Br1573     Br  0.87998818  0.70411759  0.87654472    -0.01570
Br1574     Br  0.80040976  0.70235029  0.93062955    -0.01560
C1575       C  0.59129356  0.56052900  0.01243315    -0.02680
C1576       C  0.59207796  0.56232290  0.95675771     0.07000
C1577       C  0.62454916  0.56061554  0.93084765    -0.02790
C1578       C  0.65513421  0.56647437  0.95957063    -0.02800
C1579       C  0.65294502  0.57178655  0.51467607     0.07130
C1580       C  0.62200193  0.56538433  0.54180113    -0.02990
Br1581     Br  0.62018394  0.56743431  0.61776760    -0.01540
Br1582     Br  0.54690115  0.55647305  0.04789962    -0.01610
Br1583     Br  0.69884753  0.57029379  0.92198297    -0.01570
Br1584     Br  0.62601106  0.55474653  0.85552276    -0.01560
C1585       C  0.95890571  0.00071617  0.92115361    -0.02680
C1586       C  0.95961193  0.52789235  0.95182933     0.07000
C1587       C  0.95277408  0.52558540  0.00655718    -0.02790
C1588       C  0.95337844  0.49656096  0.53184011    -0.02800
C1589       C  0.95818789  0.96922340  0.50172506     0.07130
C1590       C  0.95604568  0.97189214  0.94609219    -0.02990
Br1591     Br  0.94824750  0.93619913  0.90338045    -0.01540
Br1592     Br  0.96514055  0.00114223  0.84551425    -0.01610
Br1593     Br  0.44879846  0.49564341  0.60790253    -0.01570
Br1594     Br  0.44204380  0.56211251  0.54776315    -0.01560
C1595       C  0.02772450  0.75327591  0.54143627    -0.02680
C1596       C  0.54656748  0.77580643  0.51534027     0.07000
C1597       C  0.56187766  0.76865416  0.96596935    -0.02790
C1598       C  0.55729926  0.73972048  0.94195376    -0.02800
C1599       C  0.53585245  0.71797241  0.96630722     0.07130
C1600       C  0.01998748  0.72607585  0.01522951    -0.02990
Br1601     Br  0.98031595  0.70515414  0.54132963    -0.01540
Br1602     Br  0.00856363  0.76033357  0.61149141    -0.01610
Br1603     Br  0.57834097  0.73179783  0.87382837    -0.01570
Br1604     Br  0.58904171  0.79896363  0.93141298    -0.01560
C1605       C  0.87753232  0.88823716  0.78100337    -0.02680
C1606       C  0.84709357  0.89112396  0.74813169     0.07000
C1607       C  0.85166596  0.89633149  0.69379427    -0.02790
C1608       C  0.88623980  0.89577099  0.67217739    -0.02800
C1609       C  0.91651559  0.88884638  0.70447275     0.07130
C1610       C  0.91189899  0.88575462  0.75919759    -0.02990
Br1611     Br  0.95269254  0.87681169  0.80378144    -0.01540
Br1612     Br  0.87202045  0.89013303  0.85635602    -0.01610
Br1613     Br  0.89212077  0.90405562  0.59802126    -0.01570
Br1614     Br  0.81049655  0.90405452  0.64950529    -0.01560
C1615       C  0.66330160  0.85915674  0.69027258    -0.02680
C1616       C  0.66921746  0.85988219  0.74508043     0.07000
C1617       C  0.63980514  0.85882186  0.77923538    -0.02790
C1618       C  0.60476964  0.86087860  0.75898655    -0.02800
C1619       C  0.59881749  0.86248999  0.70417352     0.07130
C1620       C  0.62829483  0.85951159  0.66997615    -0.02990
Br1621     Br  0.62065925  0.85467544  0.59523122    -0.01540
Br1622     Br  0.70314771  0.85837680  0.64336199    -0.01610
Br1623     Br  0.56492658  0.86236972  0.80610838    -0.01570
Br1624     Br  0.64762619  0.85409560  0.85410225    -0.01560
C1625       C  0.91770512  0.81315568  0.95240008    -0.02680
C1626       C  0.91921944  0.81943001  0.50672684     0.07000
C1627       C  0.88816810  0.82282186  0.53597949    -0.02790
C1628       C  0.85620091  0.82947403  0.00941919    -0.02800
C1629       C  0.85475584  0.82699026  0.95347488     0.07130
C1630       C  0.88499912  0.81560879  0.92578935    -0.02990
Br1631     Br  0.88328495  0.80715482  0.85111103    -0.01540
Br1632     Br  0.96103785  0.80372265  0.91454743    -0.01610
Br1633     Br  0.81598127  0.84452684  0.05099225    -0.01570
Br1634     Br  0.89007336  0.82101862  0.61204765    -0.01560
C1635       C  0.62675905  0.93189258  0.53015992    -0.02680
C1636       C  0.59500481  0.93040546  0.50185150     0.07000
C1637       C  0.59475761  0.93379632  0.94652518    -0.02790
C1638       C  0.62676344  0.93168769  0.91894172    -0.02800
C1639       C  0.65833674  0.92485367  0.94734711     0.07130
C1640       C  0.65874824  0.92803844  0.00294761    -0.02990
Br1641     Br  0.70278654  0.92560097  0.04229738    -0.01540
Br1642     Br  0.62634751  0.93662072  0.60579532    -0.01610
Br1643     Br  0.62663730  0.93572660  0.84314176    -0.01570
Br1644     Br  0.55031548  0.93874842  0.90890130    -0.01560
C1645       C  0.74675279  0.50992114  0.00684267    -0.02680
C1646       C  0.77715905  0.52574345  0.51735096     0.07000
C1647       C  0.80962998  0.51413712  0.99572423    -0.02790
C1648       C  0.81065765  0.98663904  0.96506740    -0.02800
C1649       C  0.77856223  0.97416030  0.94910449     0.07130
C1650       C  0.74671007  0.98854929  0.96657377    -0.02990
Br1651     Br  0.70331109  0.98580713  0.92817406    -0.01540
Br1652     Br  0.70673485  0.51213653  0.05278557    -0.01610
Br1653     Br  0.85501047  0.96699817  0.94372217    -0.01570
Br1654     Br  0.85199054  0.53498575  0.50988694    -0.01560
C1655       C  0.69940759  0.75931176  0.92872994    -0.02680
C1656       C  0.72618526  0.77812905  0.94736791     0.07000
C1657       C  0.74600930  0.76802339  0.99202923    -0.02790
C1658       C  0.73528960  0.74399688  0.52350842    -0.02800
C1659       C  0.71118024  0.72365685  0.50309020     0.07130
C1660       C  0.69342756  0.73123132  0.95521332    -0.02990
Br1661     Br  0.66099872  0.70298599  0.92705693    -0.01540
Br1662     Br  0.67265318  0.77025714  0.86587192    -0.01610
Br1663     Br  0.75683751  0.73840681  0.59256947    -0.01570
Br1664     Br  0.79438981  0.77793191  0.99923467    -0.01560
loop_ 
_geom_bond_atom_site_label_1 
_geom_bond_atom_site_label_2 
_geom_bond_distance 
_geom_bond_site_symmetry_2 
_ccdc_geom_bond_type 
Fe1          O17   2.082       .  S
Fe1           O7   2.112       .  S
Fe1          O14   2.100       .  S
Fe1           O6   2.060       .  S
Fe1          O12   1.955       .  S
Fe2           O5   2.011       .  S
Fe2           O9   2.082       .  S
Fe2          O13   2.013       .  S
Fe2          O18   2.089       .  S
Fe2          O12   1.929       .  S
Fe3          O21   2.108       .  S
Fe3           O8   2.068       .  S
Fe3          O15   2.071       .  S
Fe3           O4   2.108       .  S
Fe3          O12   1.959       .  S
O4           C11   1.277       .  A
O5           C19   1.264       .  A
O6           C11   1.267       .  A
O7           C10   1.278       .  A
O8           C20   1.264       .  A
O9           C22   1.267       .  A
C10          O15   1.271       .  A
C10         C150   1.501       .  S
C11         C160   1.495       .  S
O13          C16   1.267       .  A
O14          C16   1.281       .  A
C16         C183   1.467       .  S
O17          C22   1.265       .  A
O18          C20   1.272       .  A
C19          O21   1.280       .  A
C19         C173   1.469       .  S
C20         C200   1.497       .  S
C22         C193   1.487       .  S
Fe23         O39   2.065   1_455  S
Fe23         O36   2.118       .  S
Fe23         O28   2.069       .  S
Fe23        O861   2.118   1_455  S
Fe23         O34   1.950   1_455  S
Fe24         O35   2.000       .  S
Fe24         O40   2.097       .  S
Fe24        O859   1.992   1_455  S
Fe24        O863   2.085   1_455  S
Fe24         O34   1.918   1_455  S
Fe25         O43   2.107       .  S
Fe25         O30   2.055       .  S
Fe25         O37   2.054       .  S
Fe25        O858   2.108       .  S
Fe25        O866   1.956       .  S
O26        Fe857   2.108   1_455  S
O26          C33   1.280       .  A
O27        Fe856   1.992       .  S
O27          C41   1.260       .  A
O28          C33   1.273       .  A
O29        Fe855   2.118       .  S
O29          C32   1.278       .  A
O30         C874   1.263       .  A
O31        Fe856   2.085       .  S
O31          C44   1.268       .  A
C32          O37   1.266       .  A
C32          C90   1.509       .  S
C33         C100   1.493       .  S
O34        Fe857   1.956       .  S
O35          C38   1.267       .  A
O36          C38   1.281       .  A
C38         C120   1.461       .  S
O39         C876   1.264       .  A
O40          C42   1.273       .  A
C41          O43   1.278       .  A
C41         C113   1.471       .  S
C42         O862   1.263       .  A
C42         C143   1.508       .  S
C44         O871   1.264       .  A
C44         C130   1.501       .  S
Fe45         O61   2.060       .  S
Fe45         O58   2.088       .  S
Fe45         O50   2.074       .  S
Fe45        O883   2.096       .  S
Fe45         O56   1.947       .  S
Fe46         O49   2.023       .  S
Fe46         O53   2.086       .  S
Fe46        O889   2.022   1_455  S
Fe46        O894   2.082   1_454  S
Fe46        O888   1.941       .  S
Fe47         O65   2.095       .  S
Fe47         O52   2.058   1_455  S
Fe47         O59   2.074       .  S
Fe47        O880   2.105   1_455  S
Fe47        O888   1.947       .  S
O48        Fe879   2.105       .  S
O48          C55   1.276       .  A
O49          C63   1.270       .  A
O50          C55   1.270       .  A
O51        Fe877   2.096       .  S
O51          C54   1.274       .  A
O52         C896   1.263       .  A
O53          C66   1.269       .  A
C54          O59   1.270       .  A
C54         C163   1.494       .  S
C55         C153   1.499       .  S
O56        Fe878   1.941       .  S
O56        Fe879   1.947       .  S
O57        Fe878   2.022       .  S
O57          C60   1.270       .  A
O58          C60   1.274       .  A
C60         C170   1.454       .  S
O61         C898   1.264       .  A
O62        Fe878   2.082   1_556  S
O62          C64   1.270   1_556  A
C63          O65   1.276       .  A
C63         C180   1.459       .  S
C64         O884   1.263       .  A
C64         C133   1.502       .  S
C66         O893   1.264       .  A
C66         C140   1.488       .  S
Fe67         O83   2.051       .  S
Fe67         O73   2.082       .  S
Fe67         O80   2.105       .  S
Fe67         O72   2.061       .  S
Fe67         O78   1.942       .  S
Fe68         O71   2.010       .  S
Fe68         O75   2.079   1_554  S
Fe68         O79   1.999       .  S
Fe68         O84   2.081       .  S
Fe68         O78   1.953       .  S
Fe69         O87   2.112       .  S
Fe69         O74   2.080       .  S
Fe69         O81   2.079       .  S
Fe69         O70   2.122       .  S
Fe69         O78   1.945       .  S
O70          C77   1.281       .  A
O71          C85   1.269       .  A
O72          C77   1.265       .  A
O73          C76   1.271       .  A
O74          C86   1.264       .  A
O75          C88   1.262   1_556  A
C76          O81   1.270       .  A
C76         C103   1.490       .  S
C77          C93   1.529       .  S
O79          C82   1.268       .  A
O80          C82   1.282       .  A
C82         C110   1.441       .  S
O83          C88   1.255       .  A
O84          C86   1.266       .  A
C85          O87   1.286       .  A
C85         C123   1.466       .  S
C86         C190   1.485       .  S
C88         C203   1.478       .  S
C89          C90   1.417       .  A
C89          C94   1.424       .  A
C89         Br96   1.925       .  S
C90          C91   1.409       .  A
C91          C92   1.416       .  A
C91         Br98   1.941       .  S
C92          C93   1.436       .  A
C92         Br97   1.941       .  S
C93          C94   1.422       .  A
C94         Br95   1.933       .  S
C99         C100   1.408       .  A
C99         C104   1.416       .  A
C99        Br106   1.927       .  S
C100        C101   1.417       .  A
C101        C102   1.414       .  A
C101       Br108   1.928       .  S
C102        C103   1.406       .  A
C102       Br107   1.928       .  S
C103        C104   1.416       .  A
C104       Br105   1.930       .  S
C109        C110   1.393       .  A
C109        C322   1.382       .  A
C109       Br116   1.933       .  S
C110        C319   1.407   1_554  A
C111        C112   1.407       .  A
C111        C318   1.407       .  A
C111       Br118   1.930       .  S
C112        C113   1.416       .  A
C112       Br117   1.932       .  S
C113        C114   1.421       .  A
C114        C317   1.382       .  A
C114       Br115   1.940       .  S
C119        C120   1.413       .  A
C119        C332   1.402       .  A
C119       Br126   1.927       .  S
C120        C121   1.395       .  A
C121        C122   1.399       .  A
C121       Br128   1.928       .  S
C122        C331   1.419       .  A
C122       Br127   1.930       .  S
C123        C124   1.403       .  A
C123        C330   1.419   1_554  A
C124        C327   1.402       .  A
C124       Br125   1.929       .  S
C129        C134   1.410       .  A
C129        C546   1.418       .  A
C129       Br136   1.933       .  S
C130        C131   1.417       .  A
C130        C545   1.418       .  A
C131        C340   1.411   1_545  A
C131      Br1178   1.929       .  S
C132        C339   1.411   1_565  A
C132        C549   1.418       .  A
C132       Br969   1.937       .  S
C133        C548   1.418       .  A
C133        C342   1.416   1_554  A
C134        C341   1.416       .  A
C134       Br135   1.931       .  S
Br137       C964   1.937       .  S
Br138      C1171   1.929       .  S
C139        C972   1.410       .  A
C139        C352   1.403       .  A
C139       Br146   1.942       .  S
C140        C971   1.410       .  A
C140        C349   1.411   1_554  A
C141        C142   1.419       .  A
C141        C348   1.411       .  A
C141       Br148   1.929       .  S
C142        C143   1.423       .  A
C142       Br147   1.931       .  S
C143        C976   1.418       .  A
C144        C347   1.403       .  A
C144        C975   1.418       .  A
C144       Br353   1.920       .  S
Br145       C352   1.920       .  S
C149        C150   1.415       .  A
C149        C154   1.415       .  A
C149       Br156   1.924       .  S
C150        C151   1.408       .  A
C151        C152   1.421       .  A
C151       Br158   1.925       .  S
C152        C153   1.419       .  A
C152       Br157   1.929       .  S
C153        C154   1.406       .  A
C154       Br155   1.926       .  S
C159        C160   1.406       .  A
C159        C164   1.416       .  A
C159       Br166   1.926       .  S
C160        C161   1.418       .  A
C161        C162   1.415       .  A
C161       Br168   1.926       .  S
C162        C163   1.406       .  A
C162       Br167   1.928       .  S
C163        C164   1.418       .  A
C164       Br165   1.929       .  S
C169        C174   1.403       .  A
C169        C378   1.406       .  A
C169       Br176   1.929       .  S
C170        C171   1.394       .  A
C170        C377   1.406   1_554  A
C171        C380   1.394       .  A
C171       Br178   1.930       .  S
C172        C173   1.423       .  A
C172        C379   1.394       .  A
C172       Br177   1.940       .  S
C173        C174   1.412       .  A
C174       Br175   1.931       .  S
C179        C180   1.400       .  A
C179        C392   1.399       .  A
C179       Br186   1.929       .  S
C180        C389   1.409   1_554  A
C181        C182   1.401       .  A
C181        C388   1.409       .  A
C181       Br188   1.927       .  S
C182        C183   1.406       .  A
C182       Br187   1.928       .  S
C183        C184   1.417       .  A
C184        C387   1.399       .  A
C184       Br185   1.932       .  S
C189        C398   1.399       .  A
C189        C610   1.383   1_545  A
C189       Br196   1.915       .  S
C190        C397   1.399       .  A
C190        C399   1.415   1_554  A
C191        C398   1.415       .  A
C191        C608   1.427   1_545  A
C191       Br406   1.919       .  S
C192        C193   1.416       .  A
C192        C607   1.427       .  A
C192       Br197   1.919       .  S
C193        C194   1.400       .  A
C194        C605   1.383       .  A
C194       Br195   1.912       .  S
Br198       C399   1.919   1_554  S
C199        C200   1.419       .  A
C199        C204   1.420       .  A
C199       Br206   1.924       .  S
C200        C201   1.407       .  A
C201        C410   1.392       .  A
C201       Br208   1.912       .  S
C202        C203   1.405       .  A
C202        C409   1.392   1_554  A
C202       Br207   1.933       .  S
C203        C412   1.410   1_554  A
C204        C411   1.410       .  A
C204       Br205   1.922       .  S
Fe209       O225   2.082       .  S
Fe209       O215   2.112       .  S
Fe209       O222   2.100       .  S
Fe209       O214   2.060       .  S
Fe209       O220   1.955       .  S
Fe210       O213   2.011       .  S
Fe210       O217   2.082       .  S
Fe210       O221   2.013       .  S
Fe210       O226   2.089       .  S
Fe210       O220   1.929       .  S
Fe211       O229   2.108       .  S
Fe211       O216   2.068       .  S
Fe211       O223   2.071       .  S
Fe211       O212   2.108       .  S
Fe211       O220   1.959       .  S
O212        C219   1.277       .  A
O213        C227   1.264       .  A
O214        C219   1.267       .  A
O215        C218   1.278       .  A
O216        C228   1.264       .  A
O217        C230   1.267       .  A
C218        O223   1.271       .  A
C218        C358   1.501       .  S
C219        C368   1.495       .  S
O221        C224   1.267       .  A
O222        C224   1.281       .  A
C224        C391   1.467       .  S
O225        C230   1.265       .  A
O226        C228   1.272       .  A
C227        O229   1.280       .  A
C227        C381   1.469       .  S
C228        C408   1.497       .  S
C230        C401   1.487       .  S
Fe231       O247   2.065   1_455  S
Fe231      O1069   2.118   1_455  S
Fe231       O244   2.118       .  S
Fe231       O236   2.069       .  S
Fe231       O242   1.950   1_455  S
Fe232      O1067   1.992   1_455  S
Fe232      O1071   2.085   1_455  S
Fe232       O243   2.000       .  S
Fe232       O248   2.097       .  S
Fe232       O242   1.918   1_455  S
Fe233       O251   2.107       .  S
Fe233       O238   2.055       .  S
Fe233       O245   2.054       .  S
Fe233      O1066   2.108       .  S
Fe233      O1074   1.956       .  S
O234      Fe1065   2.108   1_455  S
O234        C241   1.280       .  A
O235      Fe1064   1.992       .  S
O235        C249   1.260       .  A
O236        C241   1.273       .  A
O237      Fe1063   2.118       .  S
O237        C240   1.278       .  A
O238       C1082   1.263       .  A
O239      Fe1064   2.085       .  S
O239        C252   1.268       .  A
C240        O245   1.266       .  A
C240        C298   1.509       .  S
C241        C308   1.493       .  S
O242      Fe1065   1.956       .  S
O243        C246   1.267       .  A
O244        C246   1.281       .  A
C246        C328   1.461       .  S
O247       C1084   1.264       .  A
O248        C250   1.273       .  A
C249        O251   1.278       .  A
C249        C321   1.471       .  S
C250       O1070   1.263       .  A
C250        C351   1.508       .  S
C252       O1079   1.264       .  A
C252        C338   1.501       .  S
Fe253       O269   2.060       .  S
Fe253      O1091   2.096       .  S
Fe253       O266   2.088       .  S
Fe253       O258   2.074       .  S
Fe253       O264   1.947       .  S
Fe254       O257   2.023       .  S
Fe254       O261   2.086       .  S
Fe254      O1097   2.022   1_455  S
Fe254      O1102   2.082   1_455  S
Fe254      O1096   1.941       .  S
Fe255       O273   2.095       .  S
Fe255       O260   2.058   1_455  S
Fe255       O267   2.074       .  S
Fe255      O1088   2.105   1_455  S
Fe255      O1096   1.947       .  S
O256      Fe1087   2.105       .  S
O256        C263   1.276       .  A
O257        C271   1.270       .  A
O258        C263   1.270       .  A
O259      Fe1085   2.096       .  S
O259        C262   1.274       .  A
O260       C1104   1.263       .  A
O261        C274   1.269       .  A
C262        O267   1.270       .  A
C262        C371   1.494       .  S
C263        C361   1.499       .  S
O264      Fe1086   1.941       .  S
O264      Fe1087   1.947       .  S
O265      Fe1086   2.022       .  S
O265        C268   1.270       .  A
O266        C268   1.274       .  A
C268        C378   1.454       .  S
O269       C1106   1.264       .  A
O270      Fe1086   2.082       .  S
O270        C272   1.270       .  A
C271        O273   1.276       .  A
C271        C388   1.459       .  S
C272       O1092   1.263       .  A
C272        C341   1.502       .  S
C274       O1101   1.264       .  A
C274        C348   1.488       .  S
Fe275       O291   2.051       .  S
Fe275       O281   2.082       .  S
Fe275       O288   2.105       .  S
Fe275       O280   2.061       .  S
Fe275       O286   1.942       .  S
Fe276       O279   2.010       .  S
Fe276       O283   2.079       .  S
Fe276       O287   1.999       .  S
Fe276       O292   2.081       .  S
Fe276       O286   1.953       .  S
Fe277       O295   2.112       .  S
Fe277       O282   2.080       .  S
Fe277       O289   2.079       .  S
Fe277       O278   2.122       .  S
Fe277       O286   1.945       .  S
O278        C285   1.281       .  A
O279        C293   1.269       .  A
O280        C285   1.265       .  A
O281        C284   1.271       .  A
O282        C294   1.264       .  A
O283        C296   1.262       .  A
C284        O289   1.270       .  A
C284        C311   1.490       .  S
C285        C301   1.529       .  S
O287        C290   1.268       .  A
O288        C290   1.282       .  A
C290        C318   1.441       .  S
O291        C296   1.255       .  A
O292        C294   1.266       .  A
C293        O295   1.286       .  A
C293        C331   1.466       .  S
C294        C398   1.485       .  S
C296        C411   1.478       .  S
C297        C298   1.417       .  A
C297        C302   1.424       .  A
C297       Br304   1.925       .  S
C298        C299   1.409       .  A
C299        C300   1.416       .  A
C299       Br306   1.941       .  S
C300        C301   1.436       .  A
C300       Br305   1.941       .  S
C301        C302   1.422       .  A
C302       Br303   1.933       .  S
C307        C308   1.408       .  A
C307        C312   1.416       .  A
C307       Br314   1.927       .  S
C308        C309   1.417       .  A
C309        C310   1.414       .  A
C309       Br316   1.928       .  S
C310        C311   1.406       .  A
C310       Br315   1.928       .  S
C311        C312   1.416       .  A
C312       Br313   1.930       .  S
C317        C318   1.393       .  A
C317       Br324   1.933       .  S
C319        C320   1.407       .  A
C319       Br326   1.930       .  S
C320        C321   1.416       .  A
C320       Br325   1.932       .  S
C321        C322   1.421   1_556  A
C322       Br323   1.940       .  S
C327        C328   1.413   1_554  A
C327       Br334   1.927       .  S
C328        C329   1.395       .  A
C329        C330   1.399       .  A
C329       Br336   1.928       .  S
C330       Br335   1.930       .  S
C331        C332   1.403       .  A
C332       Br333   1.929       .  S
C337        C754   1.418       .  A
C337        C342   1.410       .  A
C337       Br344   1.933       .  S
C338        C753   1.418       .  A
C338        C339   1.417   1_556  A
C339       Br970   1.929       .  S
C340        C757   1.418       .  A
C340      Br1177   1.937       .  S
C341        C756   1.418       .  A
C342       Br343   1.931       .  S
Br345      C1172   1.937       .  S
Br346       C963   1.929       .  S
C347       C1180   1.410       .  A
C347       Br354   1.942       .  S
C348       C1179   1.410       .  A
C349        C350   1.419       .  A
C349       Br356   1.929       .  S
C350        C351   1.423       .  A
C350       Br355   1.931       .  S
C351       C1184   1.418   1_556  A
C352       C1183   1.418   1_554  A
C357        C358   1.415       .  A
C357        C362   1.415       .  A
C357       Br364   1.924       .  S
C358        C359   1.408       .  A
C359        C360   1.421       .  A
C359       Br366   1.925       .  S
C360        C361   1.419       .  A
C360       Br365   1.929       .  S
C361        C362   1.406       .  A
C362       Br363   1.926       .  S
C367        C368   1.406       .  A
C367        C372   1.416       .  A
C367       Br374   1.926       .  S
C368        C369   1.418       .  A
C369        C370   1.415       .  A
C369       Br376   1.926       .  S
C370        C371   1.406       .  A
C370       Br375   1.928       .  S
C371        C372   1.418       .  A
C372       Br373   1.929       .  S
C377        C382   1.403       .  A
C377       Br384   1.929       .  S
C378        C379   1.394       .  A
C379       Br386   1.930       .  S
C380        C381   1.423   1_554  A
C380       Br385   1.940       .  S
C381        C382   1.412       .  A
C382       Br383   1.931       .  S
C387        C388   1.400       .  A
C387       Br394   1.929       .  S
C389        C390   1.401       .  A
C389       Br396   1.927       .  S
C390        C391   1.406       .  A
C390       Br395   1.928       .  S
C391        C392   1.417   1_556  A
C392       Br393   1.932       .  S
C397        C818   1.383   1_544  A
C397       Br404   1.915       .  S
C399        C816   1.427   1_545  A
C400        C815   1.427       .  A
C400        C401   1.416       .  A
C400       Br405   1.919       .  S
C401        C402   1.400       .  A
C402        C813   1.383   1_556  A
C402       Br403   1.912       .  S
C407        C408   1.419       .  A
C407        C412   1.420       .  A
C407       Br414   1.924       .  S
C408        C409   1.407       .  A
C409       Br416   1.912       .  S
C410        C411   1.405       .  A
C410       Br415   1.933       .  S
C412       Br413   1.922       .  S
Fe417       O433   2.082       .  S
Fe417       O423   2.112       .  S
Fe417       O430   2.100       .  S
Fe417       O422   2.060       .  S
Fe417       O428   1.955       .  S
Fe418       O421   2.011       .  S
Fe418       O425   2.082       .  S
Fe418       O429   2.013       .  S
Fe418       O434   2.089       .  S
Fe418       O428   1.929       .  S
Fe419       O437   2.108       .  S
Fe419       O424   2.068       .  S
Fe419       O431   2.071       .  S
Fe419       O420   2.108       .  S
Fe419       O428   1.959       .  S
O420        C427   1.277       .  A
O421        C435   1.264       .  A
O422        C427   1.267       .  A
O423        C426   1.278       .  A
O424        C436   1.264       .  A
O425        C438   1.267       .  A
C426        O431   1.271       .  A
C426        C566   1.501       .  S
C427        C576   1.495       .  S
O429        C432   1.267       .  A
O430        C432   1.281       .  A
C432        C599   1.467       .  S
O433        C438   1.265       .  A
O434        C436   1.272       .  A
C435        O437   1.280       .  A
C435        C589   1.469       .  S
C436        C616   1.497       .  S
C438        C609   1.487       .  S
Fe439       O455   2.065   1_455  S
Fe439      O1277   2.118   1_455  S
Fe439       O452   2.118       .  S
Fe439       O444   2.069       .  S
Fe439       O450   1.950   1_455  S
Fe440      O1275   1.992   1_455  S
Fe440      O1279   2.085   1_455  S
Fe440       O451   2.000       .  S
Fe440       O456   2.097       .  S
Fe440       O450   1.918   1_455  S
Fe441       O459   2.107       .  S
Fe441       O446   2.055       .  S
Fe441       O453   2.054       .  S
Fe441      O1274   2.108       .  S
Fe441      O1282   1.956       .  S
O442      Fe1273   2.108   1_455  S
O442        C449   1.280       .  A
O443      Fe1272   1.992       .  S
O443        C457   1.260       .  A
O444        C449   1.273       .  A
O445      Fe1271   2.118       .  S
O445        C448   1.278       .  A
O446       C1290   1.263       .  A
O447      Fe1272   2.085       .  S
O447        C460   1.268       .  A
C448        O453   1.266       .  A
C448        C506   1.509       .  S
C449        C516   1.493       .  S
O450      Fe1273   1.956       .  S
O451        C454   1.267       .  A
O452        C454   1.281       .  A
C454        C536   1.461       .  S
O455       C1292   1.264       .  A
O456        C458   1.273       .  A
C457        O459   1.278       .  A
C457        C529   1.471       .  S
C458       O1278   1.263       .  A
C458        C559   1.508       .  S
C460       O1287   1.264       .  A
C460        C546   1.501       .  S
Fe461       O477   2.060       .  S
Fe461      O1299   2.096       .  S
Fe461       O474   2.088       .  S
Fe461       O466   2.074       .  S
Fe461       O472   1.947       .  S
Fe462       O465   2.023       .  S
Fe462       O469   2.086       .  S
Fe462      O1305   2.022   1_455  S
Fe462      O1310   2.082   1_454  S
Fe462      O1304   1.941       .  S
Fe463       O481   2.095       .  S
Fe463       O468   2.058   1_455  S
Fe463       O475   2.074       .  S
Fe463      O1296   2.105   1_455  S
Fe463      O1304   1.947       .  S
O464      Fe1295   2.105       .  S
O464        C471   1.276       .  A
O465        C479   1.270       .  A
O466        C471   1.270       .  A
O467      Fe1293   2.096       .  S
O467        C470   1.274       .  A
O468       C1312   1.263       .  A
O469        C482   1.269       .  A
C470        O475   1.270       .  A
C470        C579   1.494       .  S
C471        C569   1.499       .  S
O472      Fe1294   1.941       .  S
O472      Fe1295   1.947       .  S
O473      Fe1294   2.022       .  S
O473        C476   1.270       .  A
O474        C476   1.274       .  A
C476        C586   1.454       .  S
O477       C1314   1.264       .  A
O478      Fe1294   2.082   1_556  S
O478        C480   1.270   1_556  A
C479        O481   1.276       .  A
C479        C596   1.459       .  S
C480       O1300   1.263       .  A
C480        C549   1.502       .  S
C482       O1309   1.264       .  A
C482        C556   1.488       .  S
Fe483       O499   2.051       .  S
Fe483       O489   2.082       .  S
Fe483       O496   2.105       .  S
Fe483       O488   2.061       .  S
Fe483       O494   1.942       .  S
Fe484       O487   2.010       .  S
Fe484       O491   2.079   1_554  S
Fe484       O495   1.999       .  S
Fe484       O500   2.081       .  S
Fe484       O494   1.953       .  S
Fe485       O503   2.112       .  S
Fe485       O490   2.080       .  S
Fe485       O497   2.079       .  S
Fe485       O486   2.122       .  S
Fe485       O494   1.945       .  S
O486        C493   1.281       .  A
O487        C501   1.269       .  A
O488        C493   1.265       .  A
O489        C492   1.271       .  A
O490        C502   1.264       .  A
O491        C504   1.262   1_556  A
C492        O497   1.270       .  A
C492        C519   1.490       .  S
C493        C509   1.529       .  S
O495        C498   1.268       .  A
O496        C498   1.282       .  A
C498        C526   1.441       .  S
O499        C504   1.255       .  A
O500        C502   1.266       .  A
C501        O503   1.286       .  A
C501        C539   1.466       .  S
C502        C606   1.485       .  S
C504        C619   1.478       .  S
C505        C506   1.417       .  A
C505        C510   1.424       .  A
C505       Br512   1.925       .  S
C506        C507   1.409       .  A
C507        C508   1.416       .  A
C507       Br514   1.941       .  S
C508        C509   1.436       .  A
C508       Br513   1.941       .  S
C509        C510   1.422       .  A
C510       Br511   1.933       .  S
C515        C516   1.408       .  A
C515        C520   1.416       .  A
C515       Br522   1.927       .  S
C516        C517   1.417       .  A
C517        C518   1.414       .  A
C517       Br524   1.928       .  S
C518        C519   1.406       .  A
C518       Br523   1.928       .  S
C519        C520   1.416       .  A
C520       Br521   1.930       .  S
C525        C526   1.393       .  A
C525        C738   1.382       .  A
C525       Br532   1.933       .  S
C526        C735   1.407   1_554  A
C527        C734   1.407       .  A
C527        C528   1.407       .  A
C527       Br534   1.930       .  S
C528        C529   1.416       .  A
C528       Br533   1.932       .  S
C529        C530   1.421       .  A
C530        C733   1.382       .  A
C530       Br531   1.940       .  S
C535        C536   1.413       .  A
C535        C748   1.402       .  A
C535       Br542   1.927       .  S
C536        C537   1.395       .  A
C537        C538   1.399       .  A
C537       Br544   1.928       .  S
C538        C747   1.419       .  A
C538       Br543   1.930       .  S
C539        C746   1.419   1_554  A
C539        C540   1.403       .  A
C540        C743   1.402       .  A
C540       Br541   1.929       .  S
C545        C550   1.410   1_545  A
C545       Br552   1.933       .  S
C546        C547   1.417       .  A
C547        C756   1.411       .  A
C547      Br1594   1.929       .  S
C548        C755   1.411       .  A
C548      Br1385   1.937       .  S
C549        C758   1.416   1_554  A
C550        C757   1.416       .  A
C550       Br551   1.931       .  S
Br553      C1380   1.937       .  S
Br554      C1587   1.929       .  S
C555       C1388   1.410       .  A
C555        C768   1.403       .  A
C555       Br562   1.942       .  S
C556       C1387   1.410       .  A
C556        C765   1.411   1_554  A
C557        C764   1.411       .  A
C557        C558   1.419       .  A
C557       Br564   1.929       .  S
C558        C559   1.423       .  A
C558       Br563   1.931       .  S
C559       C1392   1.418       .  A
C560        C763   1.403       .  A
C560       C1391   1.418       .  A
C560       Br769   1.920       .  S
Br561       C768   1.920       .  S
C565        C566   1.415       .  A
C565        C570   1.415       .  A
C565       Br572   1.924       .  S
C566        C567   1.408       .  A
C567        C568   1.421       .  A
C567       Br574   1.925       .  S
C568        C569   1.419       .  A
C568       Br573   1.929       .  S
C569        C570   1.406       .  A
C570       Br571   1.926       .  S
C575        C576   1.406       .  A
C575        C580   1.416       .  A
C575       Br582   1.926       .  S
C576        C577   1.418       .  A
C577        C578   1.415       .  A
C577       Br584   1.926       .  S
C578        C579   1.406       .  A
C578       Br583   1.928       .  S
C579        C580   1.418       .  A
C580       Br581   1.929       .  S
C585        C794   1.406       .  A
C585        C590   1.403       .  A
C585       Br592   1.929       .  S
C586        C793   1.406   1_554  A
C586        C587   1.394       .  A
C587        C796   1.394       .  A
C587       Br594   1.930       .  S
C588        C795   1.394       .  A
C588        C589   1.423       .  A
C588       Br593   1.940       .  S
C589        C590   1.412       .  A
C590       Br591   1.931       .  S
C595        C596   1.400       .  A
C595        C808   1.399       .  A
C595       Br602   1.929       .  S
C596        C805   1.409   1_554  A
C597        C804   1.409       .  A
C597        C598   1.401       .  A
C597       Br604   1.927       .  S
C598        C599   1.406       .  A
C598       Br603   1.928       .  S
C599        C600   1.417       .  A
C600        C803   1.399       .  A
C600       Br601   1.932       .  S
C605        C814   1.399       .  A
C605       Br612   1.915       .  S
C606        C813   1.399       .  A
C606        C815   1.415   1_554  A
C607        C814   1.415       .  A
C607       Br822   1.919       .  S
C608        C609   1.416       .  A
C608       Br613   1.919       .  S
C609        C610   1.400       .  A
C610       Br611   1.912       .  S
Br614       C815   1.919   1_554  S
C615        C616   1.419       .  A
C615        C620   1.420       .  A
C615       Br622   1.924       .  S
C616        C617   1.407       .  A
C617        C826   1.392       .  A
C617       Br624   1.912       .  S
C618        C825   1.392   1_554  A
C618        C619   1.405       .  A
C618       Br623   1.933       .  S
C619        C828   1.410   1_554  A
C620        C827   1.410       .  A
C620       Br621   1.922       .  S
Fe625       O641   2.082       .  S
Fe625       O631   2.112       .  S
Fe625       O638   2.100       .  S
Fe625       O630   2.060       .  S
Fe625       O636   1.955       .  S
Fe626       O629   2.011       .  S
Fe626       O633   2.082       .  S
Fe626       O637   2.013       .  S
Fe626       O642   2.089       .  S
Fe626       O636   1.929       .  S
Fe627       O645   2.108       .  S
Fe627       O632   2.068       .  S
Fe627       O639   2.071       .  S
Fe627       O628   2.108       .  S
Fe627       O636   1.959       .  S
O628        C635   1.277       .  A
O629        C643   1.264       .  A
O630        C635   1.267       .  A
O631        C634   1.278       .  A
O632        C644   1.264       .  A
O633        C646   1.267       .  A
C634        O639   1.271       .  A
C634        C774   1.501       .  S
C635        C784   1.495       .  S
O637        C640   1.267       .  A
O638        C640   1.281       .  A
C640        C807   1.467       .  S
O641        C646   1.265       .  A
O642        C644   1.272       .  A
C643        O645   1.280       .  A
C643        C797   1.469       .  S
C644        C824   1.497       .  S
C646        C817   1.487       .  S
Fe647       O663   2.065   1_455  S
Fe647      O1485   2.118   1_455  S
Fe647       O660   2.118       .  S
Fe647       O652   2.069       .  S
Fe647       O658   1.950   1_455  S
Fe648      O1483   1.992   1_455  S
Fe648      O1487   2.085   1_455  S
Fe648       O659   2.000       .  S
Fe648       O664   2.097       .  S
Fe648       O658   1.918   1_455  S
Fe649       O667   2.107       .  S
Fe649       O654   2.055       .  S
Fe649       O661   2.054       .  S
Fe649      O1482   2.108       .  S
Fe649      O1490   1.956       .  S
O650      Fe1481   2.108   1_455  S
O650        C657   1.280       .  A
O651      Fe1480   1.992       .  S
O651        C665   1.260       .  A
O652        C657   1.273       .  A
O653      Fe1479   2.118       .  S
O653        C656   1.278       .  A
O654       C1498   1.263       .  A
O655      Fe1480   2.085       .  S
O655        C668   1.268       .  A
C656        O661   1.266       .  A
C656        C714   1.509       .  S
C657        C724   1.493       .  S
O658      Fe1481   1.956       .  S
O659        C662   1.267       .  A
O660        C662   1.281       .  A
C662        C744   1.461       .  S
O663       C1500   1.264       .  A
O664        C666   1.273       .  A
C665        O667   1.278       .  A
C665        C737   1.471       .  S
C666       O1486   1.263       .  A
C666        C767   1.508       .  S
C668       O1495   1.264       .  A
C668        C754   1.501       .  S
Fe669       O685   2.060       .  S
Fe669      O1507   2.096       .  S
Fe669       O682   2.088       .  S
Fe669       O674   2.074       .  S
Fe669       O680   1.947       .  S
Fe670       O673   2.023       .  S
Fe670       O677   2.086       .  S
Fe670      O1513   2.022   1_455  S
Fe670      O1518   2.082   1_455  S
Fe670      O1512   1.941       .  S
Fe671       O689   2.095       .  S
Fe671       O676   2.058   1_455  S
Fe671       O683   2.074       .  S
Fe671      O1504   2.105   1_455  S
Fe671      O1512   1.947       .  S
O672      Fe1503   2.105       .  S
O672        C679   1.276       .  A
O673        C687   1.270       .  A
O674        C679   1.270       .  A
O675      Fe1501   2.096       .  S
O675        C678   1.274       .  A
O676       C1520   1.263       .  A
O677        C690   1.269       .  A
C678        O683   1.270       .  A
C678        C787   1.494       .  S
C679        C777   1.499       .  S
O680      Fe1502   1.941       .  S
O680      Fe1503   1.947       .  S
O681      Fe1502   2.022       .  S
O681        C684   1.270       .  A
O682        C684   1.274       .  A
C684        C794   1.454       .  S
O685       C1522   1.264       .  A
O686      Fe1502   2.082       .  S
O686        C688   1.270       .  A
C687        O689   1.276       .  A
C687        C804   1.459       .  S
C688       O1508   1.263       .  A
C688        C757   1.502       .  S
C690       O1517   1.264       .  A
C690        C764   1.488       .  S
Fe691       O707   2.051       .  S
Fe691       O697   2.082       .  S
Fe691       O704   2.105       .  S
Fe691       O696   2.061       .  S
Fe691       O702   1.942       .  S
Fe692       O695   2.010       .  S
Fe692       O699   2.079       .  S
Fe692       O703   1.999       .  S
Fe692       O708   2.081       .  S
Fe692       O702   1.953       .  S
Fe693       O711   2.112       .  S
Fe693       O698   2.080       .  S
Fe693       O705   2.079       .  S
Fe693       O694   2.122       .  S
Fe693       O702   1.945       .  S
O694        C701   1.281       .  A
O695        C709   1.269       .  A
O696        C701   1.265       .  A
O697        C700   1.271       .  A
O698        C710   1.264       .  A
O699        C712   1.262       .  A
C700        O705   1.270       .  A
C700        C727   1.490       .  S
C701        C717   1.529       .  S
O703        C706   1.268       .  A
O704        C706   1.282       .  A
C706        C734   1.441       .  S
O707        C712   1.255       .  A
O708        C710   1.266       .  A
C709        O711   1.286       .  A
C709        C747   1.466       .  S
C710        C814   1.485       .  S
C712        C827   1.478       .  S
C713        C714   1.417       .  A
C713        C718   1.424       .  A
C713       Br720   1.925       .  S
C714        C715   1.409       .  A
C715        C716   1.416       .  A
C715       Br722   1.941       .  S
C716        C717   1.436       .  A
C716       Br721   1.941       .  S
C717        C718   1.422       .  A
C718       Br719   1.933       .  S
C723        C724   1.408       .  A
C723        C728   1.416       .  A
C723       Br730   1.927       .  S
C724        C725   1.417       .  A
C725        C726   1.414       .  A
C725       Br732   1.928       .  S
C726        C727   1.406       .  A
C726       Br731   1.928       .  S
C727        C728   1.416       .  A
C728       Br729   1.930       .  S
C733        C734   1.393       .  A
C733       Br740   1.933       .  S
C735        C736   1.407       .  A
C735       Br742   1.930       .  S
C736        C737   1.416       .  A
C736       Br741   1.932       .  S
C737        C738   1.421   1_556  A
C738       Br739   1.940       .  S
C743        C744   1.413   1_554  A
C743       Br750   1.927       .  S
C744        C745   1.395       .  A
C745        C746   1.399       .  A
C745       Br752   1.928       .  S
C746       Br751   1.930       .  S
C747        C748   1.403       .  A
C748       Br749   1.929       .  S
C753        C758   1.410   1_545  A
C753       Br760   1.933       .  S
C754        C755   1.417   1_556  A
C755      Br1386   1.929       .  S
C756      Br1593   1.937       .  S
C758       Br759   1.931       .  S
Br761      C1588   1.937       .  S
Br762      C1379   1.929       .  S
C763       C1596   1.410       .  A
C763       Br770   1.942       .  S
C764       C1595   1.410       .  A
C765        C766   1.419       .  A
C765       Br772   1.929       .  S
C766        C767   1.423       .  A
C766       Br771   1.931       .  S
C767       C1600   1.418   1_556  A
C768       C1599   1.418   1_554  A
C773        C774   1.415       .  A
C773        C778   1.415       .  A
C773       Br780   1.924       .  S
C774        C775   1.408       .  A
C775        C776   1.421       .  A
C775       Br782   1.925       .  S
C776        C777   1.419       .  A
C776       Br781   1.929       .  S
C777        C778   1.406       .  A
C778       Br779   1.926       .  S
C783        C784   1.406       .  A
C783        C788   1.416       .  A
C783       Br790   1.926       .  S
C784        C785   1.418       .  A
C785        C786   1.415       .  A
C785       Br792   1.926       .  S
C786        C787   1.406       .  A
C786       Br791   1.928       .  S
C787        C788   1.418       .  A
C788       Br789   1.929       .  S
C793        C798   1.403       .  A
C793       Br800   1.929       .  S
C794        C795   1.394       .  A
C795       Br802   1.930       .  S
C796        C797   1.423   1_554  A
C796       Br801   1.940       .  S
C797        C798   1.412       .  A
C798       Br799   1.931       .  S
C803        C804   1.400       .  A
C803       Br810   1.929       .  S
C805        C806   1.401       .  A
C805       Br812   1.927       .  S
C806        C807   1.406       .  A
C806       Br811   1.928       .  S
C807        C808   1.417   1_556  A
C808       Br809   1.932       .  S
C813       Br820   1.915       .  S
C816        C817   1.416       .  A
C816       Br821   1.919       .  S
C817        C818   1.400       .  A
C818       Br819   1.912       .  S
C823        C824   1.419       .  A
C823        C828   1.420       .  A
C823       Br830   1.924       .  S
C824        C825   1.407       .  A
C825       Br832   1.912       .  S
C826        C827   1.405       .  A
C826       Br831   1.933       .  S
C828       Br829   1.922       .  S
Fe833       O849   2.082       .  S
Fe833       O839   2.112       .  S
Fe833       O846   2.100       .  S
Fe833       O838   2.060       .  S
Fe833       O844   1.955       .  S
Fe834       O837   2.011       .  S
Fe834       O841   2.082       .  S
Fe834       O845   2.013       .  S
Fe834       O850   2.089       .  S
Fe834       O844   1.929       .  S
Fe835       O853   2.108       .  S
Fe835       O840   2.068       .  S
Fe835       O847   2.071       .  S
Fe835       O836   2.108       .  S
Fe835       O844   1.959       .  S
O836        C843   1.277       .  A
O837        C851   1.264       .  A
O838        C843   1.267       .  A
O839        C842   1.278       .  A
O840        C852   1.264       .  A
O841        C854   1.267       .  A
C842        O847   1.271       .  A
C842        C982   1.501       .  S
C843        C992   1.495       .  S
O845        C848   1.267       .  A
O846        C848   1.281       .  A
C848       C1015   1.467       .  S
O849        C854   1.265       .  A
O850        C852   1.272       .  A
C851        O853   1.280       .  A
C851       C1005   1.469       .  S
C852       C1032   1.497       .  S
C854       C1025   1.487       .  S
Fe855       O871   2.065       .  S
Fe855       O868   2.118       .  S
Fe855       O860   2.069       .  S
Fe855       O866   1.950       .  S
Fe856       O867   2.000       .  S
Fe856       O872   2.097       .  S
Fe856       O866   1.918       .  S
Fe857       O875   2.107       .  S
Fe857       O862   2.055   1_655  S
Fe857       O869   2.054       .  S
O858        C865   1.280       .  A
O859        C873   1.260       .  A
O860        C865   1.273       .  A
O861        C864   1.278       .  A
O863        C876   1.268       .  A
C864        O869   1.266       .  A
C864        C922   1.509       .  S
C865        C932   1.493       .  S
O867        C870   1.267       .  A
O868        C870   1.281       .  A
C870        C952   1.461       .  S
O872        C874   1.273       .  A
C873        O875   1.278       .  A
C873        C945   1.471       .  S
C874        C975   1.508       .  S
C876        C962   1.501       .  S
Fe877       O893   2.060       .  S
Fe877       O890   2.088   1_455  S
Fe877       O882   2.074   1_455  S
Fe877       O888   1.947       .  S
Fe878       O881   2.023       .  S
Fe878       O885   2.086       .  S
Fe879       O897   2.095       .  S
Fe879       O884   2.058       .  S
Fe879       O891   2.074       .  S
O880        C887   1.276       .  A
O881        C895   1.270       .  A
O882        C887   1.270       .  A
O883        C886   1.274       .  A
O885        C898   1.269       .  A
C886        O891   1.270       .  A
C886        C995   1.494       .  S
C887        C985   1.499       .  S
O889        C892   1.270       .  A
O890        C892   1.274       .  A
C892       C1002   1.454       .  S
O894        C896   1.270   1_556  A
C895        O897   1.276       .  A
C895       C1012   1.459       .  S
C896        C965   1.502       .  S
C898        C972   1.488       .  S
Fe899       O915   2.051       .  S
Fe899       O905   2.082       .  S
Fe899       O912   2.105       .  S
Fe899       O904   2.061       .  S
Fe899       O910   1.942       .  S
Fe900       O903   2.010       .  S
Fe900       O907   2.079   1_554  S
Fe900       O911   1.999       .  S
Fe900       O916   2.081       .  S
Fe900       O910   1.953       .  S
Fe901       O919   2.112       .  S
Fe901       O906   2.080       .  S
Fe901       O913   2.079       .  S
Fe901       O902   2.122       .  S
Fe901       O910   1.945       .  S
O902        C909   1.281       .  A
O903        C917   1.269       .  A
O904        C909   1.265       .  A
O905        C908   1.271       .  A
O906        C918   1.264       .  A
O907        C920   1.262   1_556  A
C908        O913   1.270       .  A
C908        C935   1.490       .  S
C909        C925   1.529       .  S
O911        C914   1.268       .  A
O912        C914   1.282       .  A
C914        C942   1.441       .  S
O915        C920   1.255       .  A
O916        C918   1.266       .  A
C917        O919   1.286       .  A
C917        C955   1.466       .  S
C918       C1022   1.485       .  S
C920       C1035   1.478       .  S
C921        C922   1.417       .  A
C921        C926   1.424       .  A
C921       Br928   1.925       .  S
C922        C923   1.409       .  A
C923        C924   1.416       .  A
C923       Br930   1.941       .  S
C924        C925   1.436       .  A
C924       Br929   1.941       .  S
C925        C926   1.422       .  A
C926       Br927   1.933       .  S
C931        C932   1.408       .  A
C931        C936   1.416       .  A
C931       Br938   1.927       .  S
C932        C933   1.417       .  A
C933        C934   1.414       .  A
C933       Br940   1.928       .  S
C934        C935   1.406       .  A
C934       Br939   1.928       .  S
C935        C936   1.416       .  A
C936       Br937   1.930       .  S
C941        C942   1.393       .  A
C941       C1154   1.382       .  A
C941       Br948   1.933       .  S
C942       C1151   1.407   1_554  A
C943       C1150   1.407       .  A
C943        C944   1.407       .  A
C943       Br950   1.930       .  S
C944        C945   1.416       .  A
C944       Br949   1.932       .  S
C945        C946   1.421       .  A
C946       C1149   1.382       .  A
C946       Br947   1.940       .  S
C951        C952   1.413       .  A
C951       C1164   1.402       .  A
C951       Br958   1.927       .  S
C952        C953   1.395       .  A
C953        C954   1.399       .  A
C953       Br960   1.928       .  S
C954       C1163   1.419       .  A
C954       Br959   1.930       .  S
C955       C1162   1.419   1_554  A
C955        C956   1.403       .  A
C956       C1159   1.402       .  A
C956       Br957   1.929       .  S
C961       C1378   1.418       .  A
C961        C966   1.410       .  A
C961       Br968   1.933       .  S
C962       C1377   1.418       .  A
C962        C963   1.417       .  A
C963       C1172   1.411   1_545  A
C964       C1171   1.411   1_565  A
C964       C1381   1.418       .  A
C965       C1380   1.418       .  A
C965       C1174   1.416   1_554  A
C966       C1173   1.416       .  A
C966       Br967   1.931       .  S
C971       C1184   1.403       .  A
C971       Br978   1.942       .  S
C972       C1181   1.411   1_554  A
C973       C1180   1.411       .  A
C973        C974   1.419       .  A
C973       Br980   1.929       .  S
C974        C975   1.423       .  A
C974       Br979   1.931       .  S
C976       C1179   1.403       .  A
C976      Br1185   1.920   1_455  S
Br977      C1184   1.920   1_655  S
C981        C982   1.415       .  A
C981        C986   1.415       .  A
C981       Br988   1.924       .  S
C982        C983   1.408       .  A
C983        C984   1.421       .  A
C983       Br990   1.925       .  S
C984        C985   1.419       .  A
C984       Br989   1.929       .  S
C985        C986   1.406       .  A
C986       Br987   1.926       .  S
C991        C992   1.406       .  A
C991        C996   1.416       .  A
C991       Br998   1.926       .  S
C992        C993   1.418       .  A
C993        C994   1.415       .  A
C993      Br1000   1.926       .  S
C994        C995   1.406       .  A
C994       Br999   1.928       .  S
C995        C996   1.418       .  A
C996       Br997   1.929       .  S
C1001      C1210   1.406       .  A
C1001      C1006   1.403       .  A
C1001     Br1008   1.929       .  S
C1002      C1209   1.406   1_554  A
C1002      C1003   1.394       .  A
C1003      C1212   1.394       .  A
C1003     Br1010   1.930       .  S
C1004      C1211   1.394       .  A
C1004      C1005   1.423       .  A
C1004     Br1009   1.940       .  S
C1005      C1006   1.412       .  A
C1006     Br1007   1.931       .  S
C1011      C1012   1.400       .  A
C1011      C1224   1.399       .  A
C1011     Br1018   1.929       .  S
C1012      C1221   1.409   1_554  A
C1013      C1220   1.409       .  A
C1013      C1014   1.401       .  A
C1013     Br1020   1.927       .  S
C1014      C1015   1.406       .  A
C1014     Br1019   1.928       .  S
C1015      C1016   1.417       .  A
C1016      C1219   1.399       .  A
C1016     Br1017   1.932       .  S
C1021      C1230   1.399       .  A
C1021      C1442   1.383   1_545  A
C1021     Br1028   1.915       .  S
C1022      C1229   1.399       .  A
C1022      C1231   1.415   1_554  A
C1023      C1230   1.415       .  A
C1023      C1440   1.427   1_545  A
C1023     Br1238   1.919       .  S
C1024      C1439   1.427       .  A
C1024      C1025   1.416       .  A
C1024     Br1029   1.919       .  S
C1025      C1026   1.400       .  A
C1026      C1437   1.383       .  A
C1026     Br1027   1.912       .  S
Br1030     C1231   1.919   1_554  S
C1031      C1032   1.419       .  A
C1031      C1036   1.420       .  A
C1031     Br1038   1.924       .  S
C1032      C1033   1.407       .  A
C1033      C1242   1.392       .  A
C1033     Br1040   1.912       .  S
C1034      C1241   1.392   1_554  A
C1034      C1035   1.405       .  A
C1034     Br1039   1.933       .  S
C1035      C1244   1.410   1_554  A
C1036      C1243   1.410       .  A
C1036     Br1037   1.922       .  S
Fe1041     O1057   2.082       .  S
Fe1041     O1047   2.112       .  S
Fe1041     O1054   2.100       .  S
Fe1041     O1046   2.060       .  S
Fe1041     O1052   1.955       .  S
Fe1042     O1045   2.011       .  S
Fe1042     O1049   2.082       .  S
Fe1042     O1053   2.013       .  S
Fe1042     O1058   2.089       .  S
Fe1042     O1052   1.929       .  S
Fe1043     O1061   2.108       .  S
Fe1043     O1048   2.068       .  S
Fe1043     O1055   2.071       .  S
Fe1043     O1044   2.108       .  S
Fe1043     O1052   1.959       .  S
O1044      C1051   1.277       .  A
O1045      C1059   1.264       .  A
O1046      C1051   1.267       .  A
O1047      C1050   1.278       .  A
O1048      C1060   1.264       .  A
O1049      C1062   1.267       .  A
C1050      O1055   1.271       .  A
C1050      C1190   1.501       .  S
C1051      C1200   1.495       .  S
O1053      C1056   1.267       .  A
O1054      C1056   1.281       .  A
C1056      C1223   1.467       .  S
O1057      C1062   1.265       .  A
O1058      C1060   1.272       .  A
C1059      O1061   1.280       .  A
C1059      C1213   1.469       .  S
C1060      C1240   1.497       .  S
C1062      C1233   1.487       .  S
Fe1063     O1079   2.065       .  S
Fe1063     O1076   2.118       .  S
Fe1063     O1068   2.069       .  S
Fe1063     O1074   1.950       .  S
Fe1064     O1075   2.000       .  S
Fe1064     O1080   2.097       .  S
Fe1064     O1074   1.918       .  S
Fe1065     O1083   2.107       .  S
Fe1065     O1070   2.055   1_655  S
Fe1065     O1077   2.054       .  S
O1066      C1073   1.280       .  A
O1067      C1081   1.260       .  A
O1068      C1073   1.273       .  A
O1069      C1072   1.278       .  A
O1071      C1084   1.268       .  A
C1072      O1077   1.266       .  A
C1072      C1130   1.509       .  S
C1073      C1140   1.493       .  S
O1075      C1078   1.267       .  A
O1076      C1078   1.281       .  A
C1078      C1160   1.461       .  S
O1080      C1082   1.273       .  A
C1081      O1083   1.278       .  A
C1081      C1153   1.471       .  S
C1082      C1183   1.508       .  S
C1084      C1170   1.501       .  S
Fe1085     O1101   2.060       .  S
Fe1085     O1098   2.088   1_455  S
Fe1085     O1090   2.074   1_455  S
Fe1085     O1096   1.947       .  S
Fe1086     O1089   2.023       .  S
Fe1086     O1093   2.086       .  S
Fe1087     O1105   2.095       .  S
Fe1087     O1092   2.058       .  S
Fe1087     O1099   2.074       .  S
O1088      C1095   1.276       .  A
O1089      C1103   1.270       .  A
O1090      C1095   1.270       .  A
O1091      C1094   1.274       .  A
O1093      C1106   1.269       .  A
C1094      O1099   1.270       .  A
C1094      C1203   1.494       .  S
C1095      C1193   1.499       .  S
O1097      C1100   1.270       .  A
O1098      C1100   1.274       .  A
C1100      C1210   1.454       .  S
O1102      C1104   1.270       .  A
C1103      O1105   1.276       .  A
C1103      C1220   1.459       .  S
C1104      C1173   1.502       .  S
C1106      C1180   1.488       .  S
Fe1107     O1123   2.051       .  S
Fe1107     O1113   2.082       .  S
Fe1107     O1120   2.105       .  S
Fe1107     O1112   2.061       .  S
Fe1107     O1118   1.942       .  S
Fe1108     O1111   2.010       .  S
Fe1108     O1115   2.079       .  S
Fe1108     O1119   1.999       .  S
Fe1108     O1124   2.081       .  S
Fe1108     O1118   1.953       .  S
Fe1109     O1127   2.112       .  S
Fe1109     O1114   2.080       .  S
Fe1109     O1121   2.079       .  S
Fe1109     O1110   2.122       .  S
Fe1109     O1118   1.945       .  S
O1110      C1117   1.281       .  A
O1111      C1125   1.269       .  A
O1112      C1117   1.265       .  A
O1113      C1116   1.271       .  A
O1114      C1126   1.264       .  A
O1115      C1128   1.262       .  A
C1116      O1121   1.270       .  A
C1116      C1143   1.490       .  S
C1117      C1133   1.529       .  S
O1119      C1122   1.268       .  A
O1120      C1122   1.282       .  A
C1122      C1150   1.441       .  S
O1123      C1128   1.255       .  A
O1124      C1126   1.266       .  A
C1125      O1127   1.286       .  A
C1125      C1163   1.466       .  S
C1126      C1230   1.485       .  S
C1128      C1243   1.478       .  S
C1129      C1130   1.417       .  A
C1129      C1134   1.424       .  A
C1129     Br1136   1.925       .  S
C1130      C1131   1.409       .  A
C1131      C1132   1.416       .  A
C1131     Br1138   1.941       .  S
C1132      C1133   1.436       .  A
C1132     Br1137   1.941       .  S
C1133      C1134   1.422       .  A
C1134     Br1135   1.933       .  S
C1139      C1140   1.408       .  A
C1139      C1144   1.416       .  A
C1139     Br1146   1.927       .  S
C1140      C1141   1.417       .  A
C1141      C1142   1.414       .  A
C1141     Br1148   1.928       .  S
C1142      C1143   1.406       .  A
C1142     Br1147   1.928       .  S
C1143      C1144   1.416       .  A
C1144     Br1145   1.930       .  S
C1149      C1150   1.393       .  A
C1149     Br1156   1.933       .  S
C1151      C1152   1.407       .  A
C1151     Br1158   1.930       .  S
C1152      C1153   1.416       .  A
C1152     Br1157   1.932       .  S
C1153      C1154   1.421   1_556  A
C1154     Br1155   1.940       .  S
C1159      C1160   1.413   1_554  A
C1159     Br1166   1.927       .  S
C1160      C1161   1.395       .  A
C1161      C1162   1.399       .  A
C1161     Br1168   1.928       .  S
C1162     Br1167   1.930       .  S
C1163      C1164   1.403       .  A
C1164     Br1165   1.929       .  S
C1169      C1586   1.418       .  A
C1169      C1174   1.410       .  A
C1169     Br1176   1.933       .  S
C1170      C1585   1.418       .  A
C1170      C1171   1.417   1_556  A
C1172      C1589   1.418       .  A
C1173      C1588   1.418       .  A
C1174     Br1175   1.931       .  S
C1179     Br1186   1.942       .  S
C1181      C1182   1.419       .  A
C1181     Br1188   1.929       .  S
C1182      C1183   1.423       .  A
C1182     Br1187   1.931       .  S
C1189      C1190   1.415       .  A
C1189      C1194   1.415       .  A
C1189     Br1196   1.924       .  S
C1190      C1191   1.408       .  A
C1191      C1192   1.421       .  A
C1191     Br1198   1.925       .  S
C1192      C1193   1.419       .  A
C1192     Br1197   1.929       .  S
C1193      C1194   1.406       .  A
C1194     Br1195   1.926       .  S
C1199      C1200   1.406       .  A
C1199      C1204   1.416       .  A
C1199     Br1206   1.926       .  S
C1200      C1201   1.418       .  A
C1201      C1202   1.415       .  A
C1201     Br1208   1.926       .  S
C1202      C1203   1.406       .  A
C1202     Br1207   1.928       .  S
C1203      C1204   1.418       .  A
C1204     Br1205   1.929       .  S
C1209      C1214   1.403       .  A
C1209     Br1216   1.929       .  S
C1210      C1211   1.394       .  A
C1211     Br1218   1.930       .  S
C1212      C1213   1.423   1_554  A
C1212     Br1217   1.940       .  S
C1213      C1214   1.412       .  A
C1214     Br1215   1.931       .  S
C1219      C1220   1.400       .  A
C1219     Br1226   1.929       .  S
C1221      C1222   1.401       .  A
C1221     Br1228   1.927       .  S
C1222      C1223   1.406       .  A
C1222     Br1227   1.928       .  S
C1223      C1224   1.417   1_556  A
C1224     Br1225   1.932       .  S
C1229      C1650   1.383   1_544  A
C1229     Br1236   1.915       .  S
C1231      C1648   1.427   1_545  A
C1232      C1647   1.427       .  A
C1232      C1233   1.416       .  A
C1232     Br1237   1.919       .  S
C1233      C1234   1.400       .  A
C1234      C1645   1.383   1_556  A
C1234     Br1235   1.912       .  S
C1239      C1240   1.419       .  A
C1239      C1244   1.420       .  A
C1239     Br1246   1.924       .  S
C1240      C1241   1.407       .  A
C1241     Br1248   1.912       .  S
C1242      C1243   1.405       .  A
C1242     Br1247   1.933       .  S
C1244     Br1245   1.922       .  S
Fe1249     O1265   2.082       .  S
Fe1249     O1255   2.112       .  S
Fe1249     O1262   2.100       .  S
Fe1249     O1254   2.060       .  S
Fe1249     O1260   1.955       .  S
Fe1250     O1253   2.011       .  S
Fe1250     O1257   2.082       .  S
Fe1250     O1261   2.013       .  S
Fe1250     O1266   2.089       .  S
Fe1250     O1260   1.929       .  S
Fe1251     O1269   2.108       .  S
Fe1251     O1256   2.068       .  S
Fe1251     O1263   2.071       .  S
Fe1251     O1252   2.108       .  S
Fe1251     O1260   1.959       .  S
O1252      C1259   1.277       .  A
O1253      C1267   1.264       .  A
O1254      C1259   1.267       .  A
O1255      C1258   1.278       .  A
O1256      C1268   1.264       .  A
O1257      C1270   1.267       .  A
C1258      O1263   1.271       .  A
C1258      C1398   1.501       .  S
C1259      C1408   1.495       .  S
O1261      C1264   1.267       .  A
O1262      C1264   1.281       .  A
C1264      C1431   1.467       .  S
O1265      C1270   1.265       .  A
O1266      C1268   1.272       .  A
C1267      O1269   1.280       .  A
C1267      C1421   1.469       .  S
C1268      C1448   1.497       .  S
C1270      C1441   1.487       .  S
Fe1271     O1287   2.065       .  S
Fe1271     O1284   2.118       .  S
Fe1271     O1276   2.069       .  S
Fe1271     O1282   1.950       .  S
Fe1272     O1283   2.000       .  S
Fe1272     O1288   2.097       .  S
Fe1272     O1282   1.918       .  S
Fe1273     O1291   2.107       .  S
Fe1273     O1278   2.055   1_655  S
Fe1273     O1285   2.054       .  S
O1274      C1281   1.280       .  A
O1275      C1289   1.260       .  A
O1276      C1281   1.273       .  A
O1277      C1280   1.278       .  A
O1279      C1292   1.268       .  A
C1280      O1285   1.266       .  A
C1280      C1338   1.509       .  S
C1281      C1348   1.493       .  S
O1283      C1286   1.267       .  A
O1284      C1286   1.281       .  A
C1286      C1368   1.461       .  S
O1288      C1290   1.273       .  A
C1289      O1291   1.278       .  A
C1289      C1361   1.471       .  S
C1290      C1391   1.508       .  S
C1292      C1378   1.501       .  S
Fe1293     O1309   2.060       .  S
Fe1293     O1306   2.088   1_455  S
Fe1293     O1298   2.074   1_455  S
Fe1293     O1304   1.947       .  S
Fe1294     O1297   2.023       .  S
Fe1294     O1301   2.086       .  S
Fe1295     O1313   2.095       .  S
Fe1295     O1300   2.058       .  S
Fe1295     O1307   2.074       .  S
O1296      C1303   1.276       .  A
O1297      C1311   1.270       .  A
O1298      C1303   1.270       .  A
O1299      C1302   1.274       .  A
O1301      C1314   1.269       .  A
C1302      O1307   1.270       .  A
C1302      C1411   1.494       .  S
C1303      C1401   1.499       .  S
O1305      C1308   1.270       .  A
O1306      C1308   1.274       .  A
C1308      C1418   1.454       .  S
O1310      C1312   1.270   1_556  A
C1311      O1313   1.276       .  A
C1311      C1428   1.459       .  S
C1312      C1381   1.502       .  S
C1314      C1388   1.488       .  S
Fe1315     O1331   2.051       .  S
Fe1315     O1321   2.082       .  S
Fe1315     O1328   2.105       .  S
Fe1315     O1320   2.061       .  S
Fe1315     O1326   1.942       .  S
Fe1316     O1319   2.010       .  S
Fe1316     O1323   2.079   1_554  S
Fe1316     O1327   1.999       .  S
Fe1316     O1332   2.081       .  S
Fe1316     O1326   1.953       .  S
Fe1317     O1335   2.112       .  S
Fe1317     O1322   2.080       .  S
Fe1317     O1329   2.079       .  S
Fe1317     O1318   2.122       .  S
Fe1317     O1326   1.945       .  S
O1318      C1325   1.281       .  A
O1319      C1333   1.269       .  A
O1320      C1325   1.265       .  A
O1321      C1324   1.271       .  A
O1322      C1334   1.264       .  A
O1323      C1336   1.262   1_556  A
C1324      O1329   1.270       .  A
C1324      C1351   1.490       .  S
C1325      C1341   1.529       .  S
O1327      C1330   1.268       .  A
O1328      C1330   1.282       .  A
C1330      C1358   1.441       .  S
O1331      C1336   1.255       .  A
O1332      C1334   1.266       .  A
C1333      O1335   1.286       .  A
C1333      C1371   1.466       .  S
C1334      C1438   1.485       .  S
C1336      C1451   1.478       .  S
C1337      C1338   1.417       .  A
C1337      C1342   1.424       .  A
C1337     Br1344   1.925       .  S
C1338      C1339   1.409       .  A
C1339      C1340   1.416       .  A
C1339     Br1346   1.941       .  S
C1340      C1341   1.436       .  A
C1340     Br1345   1.941       .  S
C1341      C1342   1.422       .  A
C1342     Br1343   1.933       .  S
C1347      C1348   1.408       .  A
C1347      C1352   1.416       .  A
C1347     Br1354   1.927       .  S
C1348      C1349   1.417       .  A
C1349      C1350   1.414       .  A
C1349     Br1356   1.928       .  S
C1350      C1351   1.406       .  A
C1350     Br1355   1.928       .  S
C1351      C1352   1.416       .  A
C1352     Br1353   1.930       .  S
C1357      C1358   1.393       .  A
C1357      C1570   1.382       .  A
C1357     Br1364   1.933       .  S
C1358      C1567   1.407   1_554  A
C1359      C1566   1.407       .  A
C1359      C1360   1.407       .  A
C1359     Br1366   1.930       .  S
C1360      C1361   1.416       .  A
C1360     Br1365   1.932       .  S
C1361      C1362   1.421       .  A
C1362      C1565   1.382       .  A
C1362     Br1363   1.940       .  S
C1367      C1368   1.413       .  A
C1367      C1580   1.402       .  A
C1367     Br1374   1.927       .  S
C1368      C1369   1.395       .  A
C1369      C1370   1.399       .  A
C1369     Br1376   1.928       .  S
C1370      C1579   1.419       .  A
C1370     Br1375   1.930       .  S
C1371      C1578   1.419   1_554  A
C1371      C1372   1.403       .  A
C1372      C1575   1.402       .  A
C1372     Br1373   1.929       .  S
C1377      C1382   1.410   1_545  A
C1377     Br1384   1.933       .  S
C1378      C1379   1.417       .  A
C1379      C1588   1.411       .  A
C1380      C1587   1.411       .  A
C1381      C1590   1.416   1_554  A
C1382      C1589   1.416       .  A
C1382     Br1383   1.931       .  S
C1387      C1600   1.403       .  A
C1387     Br1394   1.942       .  S
C1388      C1597   1.411   1_554  A
C1389      C1596   1.411       .  A
C1389      C1390   1.419       .  A
C1389     Br1396   1.929       .  S
C1390      C1391   1.423       .  A
C1390     Br1395   1.931       .  S
C1392      C1595   1.403       .  A
C1392     Br1601   1.920   1_455  S
Br1393     C1600   1.920   1_655  S
C1397      C1398   1.415       .  A
C1397      C1402   1.415       .  A
C1397     Br1404   1.924       .  S
C1398      C1399   1.408       .  A
C1399      C1400   1.421       .  A
C1399     Br1406   1.925       .  S
C1400      C1401   1.419       .  A
C1400     Br1405   1.929       .  S
C1401      C1402   1.406       .  A
C1402     Br1403   1.926       .  S
C1407      C1408   1.406       .  A
C1407      C1412   1.416       .  A
C1407     Br1414   1.926       .  S
C1408      C1409   1.418       .  A
C1409      C1410   1.415       .  A
C1409     Br1416   1.926       .  S
C1410      C1411   1.406       .  A
C1410     Br1415   1.928       .  S
C1411      C1412   1.418       .  A
C1412     Br1413   1.929       .  S
C1417      C1626   1.406       .  A
C1417      C1422   1.403       .  A
C1417     Br1424   1.929       .  S
C1418      C1625   1.406   1_554  A
C1418      C1419   1.394       .  A
C1419      C1628   1.394       .  A
C1419     Br1426   1.930       .  S
C1420      C1627   1.394       .  A
C1420      C1421   1.423       .  A
C1420     Br1425   1.940       .  S
C1421      C1422   1.412       .  A
C1422     Br1423   1.931       .  S
C1427      C1428   1.400       .  A
C1427      C1640   1.399       .  A
C1427     Br1434   1.929       .  S
C1428      C1637   1.409   1_554  A
C1429      C1636   1.409       .  A
C1429      C1430   1.401       .  A
C1429     Br1436   1.927       .  S
C1430      C1431   1.406       .  A
C1430     Br1435   1.928       .  S
C1431      C1432   1.417       .  A
C1432      C1635   1.399       .  A
C1432     Br1433   1.932       .  S
C1437      C1646   1.399       .  A
C1437     Br1444   1.915       .  S
C1438      C1645   1.399       .  A
C1438      C1647   1.415   1_554  A
C1439      C1646   1.415       .  A
C1439     Br1654   1.919       .  S
C1440      C1441   1.416       .  A
C1440     Br1445   1.919       .  S
C1441      C1442   1.400       .  A
C1442     Br1443   1.912       .  S
Br1446     C1647   1.919   1_554  S
C1447      C1448   1.419       .  A
C1447      C1452   1.420       .  A
C1447     Br1454   1.924       .  S
C1448      C1449   1.407       .  A
C1449      C1658   1.392       .  A
C1449     Br1456   1.912       .  S
C1450      C1657   1.392   1_554  A
C1450      C1451   1.405       .  A
C1450     Br1455   1.933       .  S
C1451      C1660   1.410   1_554  A
C1452      C1659   1.410       .  A
C1452     Br1453   1.922       .  S
Fe1457     O1473   2.082       .  S
Fe1457     O1463   2.112       .  S
Fe1457     O1470   2.100       .  S
Fe1457     O1462   2.060       .  S
Fe1457     O1468   1.955       .  S
Fe1458     O1461   2.011       .  S
Fe1458     O1465   2.082       .  S
Fe1458     O1469   2.013       .  S
Fe1458     O1474   2.089       .  S
Fe1458     O1468   1.929       .  S
Fe1459     O1477   2.108       .  S
Fe1459     O1464   2.068       .  S
Fe1459     O1471   2.071       .  S
Fe1459     O1460   2.108       .  S
Fe1459     O1468   1.959       .  S
O1460      C1467   1.277       .  A
O1461      C1475   1.264       .  A
O1462      C1467   1.267       .  A
O1463      C1466   1.278       .  A
O1464      C1476   1.264       .  A
O1465      C1478   1.267       .  A
C1466      O1471   1.271       .  A
C1466      C1606   1.501       .  S
C1467      C1616   1.495       .  S
O1469      C1472   1.267       .  A
O1470      C1472   1.281       .  A
C1472      C1639   1.467       .  S
O1473      C1478   1.265       .  A
O1474      C1476   1.272       .  A
C1475      O1477   1.280       .  A
C1475      C1629   1.469       .  S
C1476      C1656   1.497       .  S
C1478      C1649   1.487       .  S
Fe1479     O1495   2.065       .  S
Fe1479     O1492   2.118       .  S
Fe1479     O1484   2.069       .  S
Fe1479     O1490   1.950       .  S
Fe1480     O1491   2.000       .  S
Fe1480     O1496   2.097       .  S
Fe1480     O1490   1.918       .  S
Fe1481     O1499   2.107       .  S
Fe1481     O1486   2.055   1_655  S
Fe1481     O1493   2.054       .  S
O1482      C1489   1.280       .  A
O1483      C1497   1.260       .  A
O1484      C1489   1.273       .  A
O1485      C1488   1.278       .  A
O1487      C1500   1.268       .  A
C1488      O1493   1.266       .  A
C1488      C1546   1.509       .  S
C1489      C1556   1.493       .  S
O1491      C1494   1.267       .  A
O1492      C1494   1.281       .  A
C1494      C1576   1.461       .  S
O1496      C1498   1.273       .  A
C1497      O1499   1.278       .  A
C1497      C1569   1.471       .  S
C1498      C1599   1.508       .  S
C1500      C1586   1.501       .  S
Fe1501     O1517   2.060       .  S
Fe1501     O1514   2.088   1_455  S
Fe1501     O1506   2.074   1_455  S
Fe1501     O1512   1.947       .  S
Fe1502     O1505   2.023       .  S
Fe1502     O1509   2.086       .  S
Fe1503     O1521   2.095       .  S
Fe1503     O1508   2.058       .  S
Fe1503     O1515   2.074       .  S
O1504      C1511   1.276       .  A
O1505      C1519   1.270       .  A
O1506      C1511   1.270       .  A
O1507      C1510   1.274       .  A
O1509      C1522   1.269       .  A
C1510      O1515   1.270       .  A
C1510      C1619   1.494       .  S
C1511      C1609   1.499       .  S
O1513      C1516   1.270       .  A
O1514      C1516   1.274       .  A
C1516      C1626   1.454       .  S
O1518      C1520   1.270       .  A
C1519      O1521   1.276       .  A
C1519      C1636   1.459       .  S
C1520      C1589   1.502       .  S
C1522      C1596   1.488       .  S
Fe1523     O1539   2.051       .  S
Fe1523     O1529   2.082       .  S
Fe1523     O1536   2.105       .  S
Fe1523     O1528   2.061       .  S
Fe1523     O1534   1.942       .  S
Fe1524     O1527   2.010       .  S
Fe1524     O1531   2.079       .  S
Fe1524     O1535   1.999       .  S
Fe1524     O1540   2.081       .  S
Fe1524     O1534   1.953       .  S
Fe1525     O1543   2.112       .  S
Fe1525     O1530   2.080       .  S
Fe1525     O1537   2.079       .  S
Fe1525     O1526   2.122       .  S
Fe1525     O1534   1.945       .  S
O1526      C1533   1.281       .  A
O1527      C1541   1.269       .  A
O1528      C1533   1.265       .  A
O1529      C1532   1.271       .  A
O1530      C1542   1.264       .  A
O1531      C1544   1.262       .  A
C1532      O1537   1.270       .  A
C1532      C1559   1.490       .  S
C1533      C1549   1.529       .  S
O1535      C1538   1.268       .  A
O1536      C1538   1.282       .  A
C1538      C1566   1.441       .  S
O1539      C1544   1.255       .  A
O1540      C1542   1.266       .  A
C1541      O1543   1.286       .  A
C1541      C1579   1.466       .  S
C1542      C1646   1.485       .  S
C1544      C1659   1.478       .  S
C1545      C1546   1.417       .  A
C1545      C1550   1.424       .  A
C1545     Br1552   1.925       .  S
C1546      C1547   1.409       .  A
C1547      C1548   1.416       .  A
C1547     Br1554   1.941       .  S
C1548      C1549   1.436       .  A
C1548     Br1553   1.941       .  S
C1549      C1550   1.422       .  A
C1550     Br1551   1.933       .  S
C1555      C1556   1.408       .  A
C1555      C1560   1.416       .  A
C1555     Br1562   1.927       .  S
C1556      C1557   1.417       .  A
C1557      C1558   1.414       .  A
C1557     Br1564   1.928       .  S
C1558      C1559   1.406       .  A
C1558     Br1563   1.928       .  S
C1559      C1560   1.416       .  A
C1560     Br1561   1.930       .  S
C1565      C1566   1.393       .  A
C1565     Br1572   1.933       .  S
C1567      C1568   1.407       .  A
C1567     Br1574   1.930       .  S
C1568      C1569   1.416       .  A
C1568     Br1573   1.932       .  S
C1569      C1570   1.421   1_556  A
C1570     Br1571   1.940       .  S
C1575      C1576   1.413   1_554  A
C1575     Br1582   1.927       .  S
C1576      C1577   1.395       .  A
C1577      C1578   1.399       .  A
C1577     Br1584   1.928       .  S
C1578     Br1583   1.930       .  S
C1579      C1580   1.403       .  A
C1580     Br1581   1.929       .  S
C1585      C1590   1.410   1_545  A
C1585     Br1592   1.933       .  S
C1586      C1587   1.417   1_556  A
C1590     Br1591   1.931       .  S
C1595     Br1602   1.942       .  S
C1597      C1598   1.419       .  A
C1597     Br1604   1.929       .  S
C1598      C1599   1.423       .  A
C1598     Br1603   1.931       .  S
C1605      C1606   1.415       .  A
C1605      C1610   1.415       .  A
C1605     Br1612   1.924       .  S
C1606      C1607   1.408       .  A
C1607      C1608   1.421       .  A
C1607     Br1614   1.925       .  S
C1608      C1609   1.419       .  A
C1608     Br1613   1.929       .  S
C1609      C1610   1.406       .  A
C1610     Br1611   1.926       .  S
C1615      C1616   1.406       .  A
C1615      C1620   1.416       .  A
C1615     Br1622   1.926       .  S
C1616      C1617   1.418       .  A
C1617      C1618   1.415       .  A
C1617     Br1624   1.926       .  S
C1618      C1619   1.406       .  A
C1618     Br1623   1.928       .  S
C1619      C1620   1.418       .  A
C1620     Br1621   1.929       .  S
C1625      C1630   1.403       .  A
C1625     Br1632   1.929       .  S
C1626      C1627   1.394       .  A
C1627     Br1634   1.930       .  S
C1628      C1629   1.423   1_554  A
C1628     Br1633   1.940       .  S
C1629      C1630   1.412       .  A
C1630     Br1631   1.931       .  S
C1635      C1636   1.400       .  A
C1635     Br1642   1.929       .  S
C1637      C1638   1.401       .  A
C1637     Br1644   1.927       .  S
C1638      C1639   1.406       .  A
C1638     Br1643   1.928       .  S
C1639      C1640   1.417   1_556  A
C1640     Br1641   1.932       .  S
C1645     Br1652   1.915       .  S
C1648      C1649   1.416       .  A
C1648     Br1653   1.919       .  S
C1649      C1650   1.400       .  A
C1650     Br1651   1.912       .  S
C1655      C1656   1.419       .  A
C1655      C1660   1.420       .  A
C1655     Br1662   1.924       .  S
C1656      C1657   1.407       .  A
C1657     Br1664   1.912       .  S
C1658      C1659   1.405       .  A
C1658     Br1663   1.933       .  S
C1660     Br1661   1.922       .  S
