geometry optimzed in LAMMPS
_audit_creation_date              2020-12-01 
_audit_creation_method            'lammps2cif' 
_symmetry_space_group_name_H-M    'P1' 
_symmetry_Int_Tables_number       1 
_symmetry_cell_setting            triclinic 
loop_ 
_symmetry_equiv_pos_as_xyz 
  x,y,z 
_cell_length_a                    39.27847051 
_cell_length_b                    34.0354950101845 
_cell_length_c                    38.99128650548291 
_cell_angle_alpha                 81.61189391046263 
_cell_angle_beta                  78.13562348512767 
_cell_angle_gamma                 89.82802819058809 
loop_ 
_atom_site_label 
_atom_site_type_symbol 
_atom_site_fract_x 
_atom_site_fract_y 
_atom_site_fract_z 
_atom_site_charge 
Zr1        Zr  0.94846205  0.98264680  0.46387707     2.17500
O2          O  0.90928085  0.00421701  0.42409842    -0.51100
O3          O  0.92947967  0.91379310  0.46935435    -0.74300
O4          O  0.97365433  0.97753433  0.40174233    -0.81100
O5          O  0.88032966  0.00003646  0.54659843    -0.82800
O6          O  0.03197694  0.99123040  0.39035106    -0.78400
O7          O  0.88709515  0.98774609  0.48993302    -0.90100
O8          O  0.95803047  0.87790959  0.50784561    -0.76000
O9          O  0.00118890  0.94829923  0.46576545    -0.85500
O10         O  0.94457670  0.95467056  0.52424107    -0.85200
O11         O  0.99395249  0.03264286  0.44296447    -0.72000
O12         O  0.94082594  0.03738060  0.49713562    -0.84100
Zr13       Zr  0.03709080  0.02385579  0.53945699     2.26400
Zr14       Zr  0.04686800  0.99824827  0.44658646     2.06300
Zr15       Zr  0.93838783  0.00876404  0.55742540     2.10000
Zr16       Zr  0.99724534  0.92101050  0.52622682     1.78800
O17         O  0.90513232  0.06506425  0.57642024    -0.92900
O18         O  0.03698492  0.87688786  0.49467389    -0.40700
O19         O  0.99128060  0.97446971  0.56046455    -0.77300
O20         O  0.04416083  0.96870077  0.50694219    -0.96000
O21         O  0.04051087  0.05251666  0.47948934    -0.89300
O22         O  0.98419838  0.05816046  0.53770888    -0.92200
C23         C  0.93584441  0.88123993  0.48772558     1.01600
C24         C  0.86814883  0.99312994  0.51988228     1.14500
C25         C  0.00369128  0.98338693  0.38078705     1.05300
O26         O  0.08199717  0.94491665  0.42401100    -0.94300
O27         O  0.10524309  0.00297040  0.45795908    -0.90100
O28         O  0.09889355  0.01633352  0.51422062    -0.83200
C29         C  0.11777284  0.00939316  0.48462862     1.11900
O30         O  0.94484384  0.11464450  0.44449232    -0.96300
Zr31       Zr  0.98751882  0.08567826  0.47749004     1.88900
O32         O  0.05922794  0.09178575  0.53023806    -0.73000
O33         O  0.07914223  0.05089515  0.40318647    -0.52200
O34         O  0.01361754  0.12337508  0.42010035    -0.96900
O35         O  0.95621751  0.13624048  0.50877868    -0.54100
O36         O  0.03225739  0.12688900  0.48986437    -0.73500
C37         C  0.05456463  0.12360985  0.50991880     0.98900
O38         O  0.06936106  0.00328186  0.58589672    -0.62300
O39         O  0.90711856  0.96025585  0.60578593    -0.57100
O40         O  0.01137442  0.03009581  0.60098456    -0.93800
O41         O  0.95301901  0.01816097  0.61309368    -0.92200
O42         O  0.96517003  0.88118089  0.58010198    -0.92600
O43         O  0.03181931  0.88767129  0.56644171    -0.91300
C44         C  0.98145714  0.02574676  0.62242132     1.17700
H45         H  0.92467664  0.93680485  0.53279242     0.33700
H46         H  0.06515623  0.95500133  0.50938690     0.44500
H47         H  0.98155270  0.07858801  0.55258245     0.38000
H48         H  0.99385617  0.04421477  0.41888139     0.34500
H49         H  0.06038912  0.88419613  0.49788958     0.26300
H50         H  0.09395699  0.03685908  0.38532944     0.32200
H51         H  0.01181156  0.15153906  0.42380559     0.38200
H52         H  0.95921577  0.90019529  0.59722989     0.32600
H53         H  0.88663550  0.97444745  0.61676712     0.31500
H54         H  0.89648196  0.07729058  0.55531768     0.33200
H55         H  0.93129229  0.13075838  0.50965478     0.32100
H56         H  0.04475195  0.90944033  0.57291251     0.36100
H57         H  0.08023288  0.97809411  0.58023461     0.28900
H58         H  0.90645519  0.98125997  0.41186617     0.33100
H59         H  0.93410225  0.09166936  0.43734958     0.36000
H60         H  0.89732280  0.94012928  0.59430293     0.28600
H61         H  0.08897739  0.02279386  0.58163767     0.41400
H62         H  0.06515753  0.92280287  0.42566377     0.31500
H63         H  0.03163581  0.85021838  0.50883681     0.39100
H64         H  0.96190262  0.16138651  0.49219451     0.31000
H65         H  0.06159109  0.06406524  0.39083626     0.31000
H66         H  0.92250151  0.02468406  0.40550531     0.31300
Zr67       Zr  0.52874795  0.02985702  0.54543608     2.17500
O68         O  0.53062039  0.06826637  0.59303339    -0.51100
O69         O  0.58885508  0.01053936  0.54492926    -0.74300
O70         O  0.51150768  0.00255079  0.60826484    -0.81100
O71         O  0.55892578  0.10703202  0.46392968    -0.82800
O72         O  0.47138292  0.95243605  0.61705755    -0.78400
O73         O  0.55879475  0.09368729  0.52268298    -0.90100
O74         O  0.60120264  0.96267190  0.50965379    -0.76000
O75         O  0.52311985  0.96012694  0.54654450    -0.85500
O76         O  0.55555800  0.01793973  0.48747314    -0.85200
O77         O  0.46710762  0.01616768  0.55899139    -0.72000
O78         O  0.49788575  0.06928752  0.50579603    -0.84100
Zr79       Zr  0.45749226  0.97049048  0.46167903     2.26400
Zr80       Zr  0.46170434  0.94601969  0.55886057     2.06300
Zr81       Zr  0.52462193  0.05547520  0.44792755     2.10000
Zr82       Zr  0.54948092  0.94833475  0.48850909     1.78800
O83         O  0.50503035  0.11794436  0.42045007    -0.92900
O84         O  0.55865236  0.88682107  0.52572637    -0.40700
O85         O  0.51890904  0.98543119  0.44791146    -0.77300
O86         O  0.48866281  0.93174177  0.50122473    -0.96000
O87         O  0.43018532  0.98315516  0.51909595    -0.89300
O88         O  0.46338998  0.04040232  0.46016968    -0.92200
C89         C  0.60978621  0.98652567  0.52925391     1.01600
C90         C  0.56754834  0.11531808  0.49223935     1.14500
C91         C  0.49050743  0.97577095  0.62850339     1.05300
O92         O  0.47885576  0.88147830  0.58484284    -0.94300
O93         O  0.42650632  0.89379824  0.54634332    -0.90100
O94         O  0.42548130  0.90817746  0.48783870    -0.83200
C95         C  0.41739331  0.88612517  0.51825413     1.11900
O96         O  0.43188053  0.10924529  0.55023827    -0.96300
Zr97       Zr  0.43674959  0.05283150  0.51784968     1.88900
O98         O  0.39842654  0.99230692  0.45994398    -0.73000
O99         O  0.40625028  0.94608738  0.60054698    -0.52200
O100        O  0.39043649  0.04300963  0.57072176    -0.96900
O101        O  0.42616582  0.11595228  0.48373571    -0.54100
O102        O  0.38553859  0.04064703  0.49465466    -0.73500
C103        C  0.37750996  0.01713813  0.47449668     0.98900
O104        O  0.45571651  0.92676315  0.41770922    -0.62300
O105        O  0.58091140  0.06032378  0.40684154    -0.57100
O106        O  0.47673895  0.99509963  0.39859419    -0.93800
O107        O  0.51849669  0.04361337  0.38947643    -0.92200
O108        O  0.59651446  0.95333808  0.43639538    -0.92600
O109        O  0.55223293  0.89264350  0.45534891    -0.91300
C110        C  0.49911359  0.02031048  0.37814504     1.17700
H111        H  0.57953478  0.02706479  0.48092064     0.33700
H112        H  0.48650171  0.90376616  0.50006921     0.44500
H113        H  0.45246242  0.05469409  0.44225916     0.38000
H114        H  0.45708385  0.02255683  0.58216173     0.34500
H115        H  0.58206909  0.87849470  0.51479002     0.26300
H116        H  0.38836827  0.94446765  0.58620520     0.32200
H117        H  0.37730092  0.01902359  0.56857388     0.38200
H118        H  0.60375138  0.98178061  0.43131728     0.32600
H119        H  0.58128765  0.08667876  0.39213576     0.31500
H120        H  0.52625923  0.13084032  0.40462580     0.33200
H121        H  0.41717097  0.10904079  0.46338415     0.32100
H122        H  0.53628848  0.89956368  0.43887130     0.36100
H123        H  0.46570308  0.90152496  0.42668276     0.28900
H124        H  0.55565463  0.07312766  0.59203200     0.33100
H125        H  0.44639583  0.10247905  0.56812419     0.36000
H126        H  0.59846230  0.06296457  0.42136672     0.28600
H127        H  0.43076059  0.92040603  0.41955079     0.41400
H128        H  0.45941192  0.87249421  0.60503525     0.31500
H129        H  0.56164058  0.89494686  0.54832457     0.39100
H130        H  0.44962991  0.12778478  0.47314446     0.31000
H131        H  0.40461598  0.91988136  0.61571466     0.31000
H132        H  0.52131771  0.09447634  0.58566176     0.31300
Zr133      Zr  0.20360077  0.47697352  0.46573395     2.17500
O134        O  0.16370664  0.49209666  0.42555180    -0.51100
O135        O  0.18802021  0.40636751  0.47230832    -0.74300
O136        O  0.22994779  0.47156014  0.40378035    -0.81100
O137        O  0.13057405  0.50728806  0.54100294    -0.82800
O138        O  0.28775211  0.48539548  0.39634354    -0.78400
O139        O  0.14230020  0.48925456  0.48614159    -0.90100
O140        O  0.21535416  0.37486502  0.51393579    -0.76000
O141        O  0.25696201  0.44606856  0.47203837    -0.85500
O142        O  0.19633310  0.45228299  0.52741829    -0.85200
O143        O  0.24768391  0.52884606  0.44539159    -0.72000
O144        O  0.19290807  0.53316457  0.49686002    -0.84100
Zr145      Zr  0.28434068  0.52748954  0.54562919     2.26400
Zr146      Zr  0.30114213  0.49774562  0.45287324     2.06300
Zr147      Zr  0.18670922  0.50849451  0.55850397     2.10000
Zr148      Zr  0.24979241  0.42185136  0.53359161     1.78800
O149        O  0.15572679  0.56657039  0.57669560    -0.92900
O150        O  0.29098554  0.37387697  0.51000218    -0.40700
O151        O  0.23965810  0.47665584  0.56603775    -0.77300
O152        O  0.29514124  0.47131603  0.51437666    -0.96000
O153        O  0.29134672  0.55354820  0.48426839    -0.89300
O154        O  0.23124640  0.55923071  0.53960027    -0.92200
C155        C  0.19476838  0.37517627  0.49237380     1.01600
C156        C  0.12117798  0.49964598  0.51292928     1.14500
C157        C  0.26075046  0.47702389  0.38434015     1.05300
O158        O  0.33880429  0.44640932  0.43003988    -0.94300
O159        O  0.35725100  0.50453745  0.47089874    -0.90100
O160        O  0.34711449  0.52380716  0.52541378    -0.83200
C161        C  0.36772357  0.51412945  0.49800616     1.11900
O162        O  0.19993794  0.61165825  0.43914219    -0.96300
Zr163      Zr  0.23771466  0.58349300  0.47813534     1.88900
O164        O  0.29560748  0.59813892  0.54360090    -0.73000
O165        O  0.33258010  0.55108985  0.40961680    -0.52200
O166        O  0.26995514  0.61869413  0.42197555    -0.96900
O167        O  0.19744917  0.63257563  0.50127251    -0.54100
O168        O  0.27380825  0.62938959  0.49747596    -0.73500
C169        C  0.29098808  0.62899359  0.52207384     0.98900
O170        O  0.32323759  0.50782411  0.58570744    -0.62300
O171        O  0.14884410  0.46255956  0.60419784    -0.57100
O172        O  0.25838081  0.52870164  0.60795836    -0.93800
O173        O  0.20079780  0.51411459  0.61572505    -0.92200
O174        O  0.21623769  0.38521123  0.58842509    -0.92600
O175        O  0.28523049  0.39502809  0.57546793    -0.91300
C176        C  0.22794261  0.52161153  0.62764262     1.17700
H177        H  0.17688178  0.43391131  0.53528236     0.33700
H178        H  0.31610512  0.45868856  0.51864279     0.44500
H179        H  0.22685828  0.58016762  0.55381737     0.38000
H180        H  0.24848425  0.53930487  0.42088870     0.34500
H181        H  0.28453822  0.36946614  0.48758224     0.26300
H182        H  0.34968510  0.53742310  0.39333080     0.32200
H183        H  0.28984375  0.63211217  0.42791104     0.38200
H184        H  0.19170251  0.38681465  0.58584653     0.32600
H185        H  0.12940652  0.47893507  0.61406758     0.31500
H186        H  0.14419817  0.55813330  0.60176858     0.33200
H187        H  0.20627696  0.64058906  0.52131937     0.32100
H188        H  0.28989195  0.41785423  0.58710245     0.36100
H189        H  0.32550891  0.53147455  0.59717555     0.28900
H190        H  0.16099664  0.46714560  0.41603928     0.33100
H191        H  0.18699304  0.58846015  0.43501970     0.36000
H192        H  0.13824972  0.44456478  0.59128453     0.28600
H193        H  0.31066359  0.48726994  0.60464843     0.41400
H194        H  0.36020192  0.46090120  0.41614050     0.31500
H195        H  0.31355849  0.38871503  0.50238038     0.39100
H196        H  0.17565504  0.61721507  0.51252518     0.31000
H197        H  0.31554220  0.56159413  0.39532461     0.31000
H198        H  0.17617446  0.51113435  0.40521820     0.31300
Zr199      Zr  0.70764739  0.47045349  0.45906619     2.17500
O200        O  0.66851493  0.47827428  0.41750142    -0.51100
O201        O  0.69725175  0.39894208  0.46804532    -0.74300
O202        O  0.73742476  0.46543482  0.39811899    -0.81100
O203        O  0.63437009  0.50085592  0.52996569    -0.82800
O204        O  0.79534087  0.47857340  0.38989069    -0.78400
O205        O  0.64475604  0.47597287  0.47779185    -0.90100
O206        O  0.72282367  0.36820968  0.51130746    -0.76000
O207        O  0.76161896  0.44218795  0.46659063    -0.85500
O208        O  0.70062950  0.44859908  0.52108922    -0.85200
O209        O  0.75030762  0.52341769  0.43647793    -0.72000
O210        O  0.69462936  0.52848740  0.48733499    -0.84100
Zr211      Zr  0.78595528  0.53058048  0.53501420     2.26400
Zr212      Zr  0.80451985  0.49514750  0.44569485     2.06300
Zr213      Zr  0.68914113  0.50646409  0.54957254     2.10000
Zr214      Zr  0.75462121  0.42056375  0.52860900     1.78800
O215        O  0.65142668  0.55861225  0.57067650    -0.92900
O216        O  0.79610005  0.37242985  0.50585036    -0.40700
O217        O  0.74318197  0.47809440  0.55758576    -0.77300
O218        O  0.79904258  0.47161300  0.50779194    -0.96000
O219        O  0.79235228  0.55307362  0.47348702    -0.89300
O220        O  0.73200672  0.55934545  0.52803616    -0.92200
C221        C  0.70388388  0.36778339  0.48822618     1.01600
C222        C  0.62428934  0.48886025  0.50371325     1.14500
C223        C  0.76830695  0.46991994  0.37857018     1.05300
O224        O  0.84386809  0.44275576  0.42849041    -0.94300
O225        O  0.86077405  0.50875570  0.45948750    -0.90100
O226        O  0.84833042  0.52439740  0.51532641    -0.83200
C227        C  0.86975492  0.51725739  0.48746487     1.11900
O228        O  0.70095609  0.60443786  0.42495599    -0.96300
Zr229      Zr  0.73812410  0.58022705  0.46590493     1.88900
O230        O  0.80101556  0.60130128  0.52123544    -0.73000
O231        O  0.83535292  0.54615464  0.39951049    -0.52200
O232        O  0.76805082  0.61367633  0.40805039    -0.96900
O233        O  0.69670657  0.62791949  0.48956882    -0.54100
O234        O  0.77689860  0.63003494  0.47606194    -0.73500
C235        C  0.79680166  0.63090438  0.49809140     0.98900
O236        O  0.81778871  0.52695380  0.58292987    -0.62300
O237        O  0.65656840  0.45388969  0.59287669    -0.57100
O238        O  0.75808446  0.53406269  0.59628787    -0.93800
O239        O  0.70037964  0.51888056  0.60684787    -0.92200
O240        O  0.72077758  0.38757694  0.58491701    -0.92600
O241        O  0.79033470  0.39905727  0.57175257    -0.91300
C242        C  0.72798556  0.52837592  0.61711737     1.17700
H243        H  0.68172574  0.42958945  0.52946386     0.33700
H244        H  0.82039134  0.46016291  0.51245256     0.44500
H245        H  0.72705902  0.58145381  0.54140483     0.38000
H246        H  0.75123616  0.53252160  0.41163449     0.34500
H247        H  0.81907532  0.38224438  0.50822564     0.26300
H248        H  0.85410055  0.53190000  0.38565473     0.32200
H249        H  0.79304491  0.61306914  0.40897435     0.38200
H250        H  0.70014593  0.37565448  0.57902560     0.32600
H251        H  0.67155005  0.44654028  0.61023094     0.31500
H252        H  0.63489646  0.54504057  0.59172563     0.33200
H253        H  0.70855706  0.64154370  0.50480508     0.32100
H254        H  0.79503862  0.42350864  0.58119805     0.36100
H255        H  0.83053779  0.50181382  0.58260182     0.28900
H256        H  0.67072238  0.45393666  0.40614243     0.33100
H257        H  0.68164258  0.58444960  0.42992543     0.36000
H258        H  0.63671599  0.46735280  0.60592839     0.28600
H259        H  0.83598086  0.54834438  0.57555701     0.41400
H260        H  0.84495019  0.42570014  0.45105446     0.31500
H261        H  0.79099162  0.34809033  0.52356751     0.39100
H262        H  0.67795641  0.61146658  0.50630615     0.31000
H263        H  0.81901307  0.55326511  0.38350327     0.31000
H264        H  0.67893697  0.50000064  0.39849752     0.31300
Zr265      Zr  0.96637721  0.03934036  0.95935926     2.17500
O266        O  0.96066632  0.09549614  0.91435045    -0.51100
O267        O  0.90534251  0.02121145  0.96802628    -0.74300
O268        O  0.97185070  0.02133572  0.90041819    -0.81100
O269        O  0.95596485  0.11069080  0.02905703    -0.82800
O270        O  0.00359887  0.96584788  0.89494217    -0.78400
O271        O  0.94604117  0.10271015  0.97513209    -0.90100
O272        O  0.89090114  0.96947484  0.01257268    -0.76000
O273        O  0.96372192  0.96876401  0.97038365    -0.85500
O274        O  0.94545952  0.02275414  0.02164916    -0.85200
O275        O  0.02485318  0.02000233  0.93857417    -0.72000
O276        O  0.00660384  0.07020210  0.98639610    -0.84100
Zr277      Zr  0.04270647  0.96060859  0.04026015     2.26400
Zr278      Zr  0.02218869  0.94861452  0.95119990     2.06300
Zr279      Zr  0.98670499  0.05166681  0.04888262     2.10000
Zr280      Zr  0.94385675  0.95204703  0.03274299     1.78800
O281        O  0.02124733  0.10617140  0.05957877    -0.92900
O282        O  0.92160708  0.89219457  0.01637117    -0.40700
O283        O  0.98444118  0.98068737  0.06058512    -0.77300
O284        O  0.00162142  0.92999658  0.01377971    -0.96000
O285        O  0.06337491  0.97816346  0.97817900    -0.89300
O286        O  0.04504041  0.03145610  0.02988229    -0.92200
C287        C  0.88336492  0.99607211  0.98872586     1.01600
C288        C  0.94408742  0.12255552  0.00101304     1.14500
C289        C  0.98628688  0.99467996  0.88254100     1.05300
O290        O  0.99168949  0.89013410  0.94200697    -0.94300
O291        O  0.05460699  0.89039084  0.96902204    -0.90100
O292        O  0.06676536  0.89922771  0.02185216    -0.83200
C293        C  0.06806271  0.87918857  0.99614414     1.11900
O294        O  0.06782460  0.10467162  0.91985069    -0.96300
Zr295      Zr  0.06443620  0.04901526  0.96748617     1.88900
O296        O  0.10371976  0.97933777  0.03137278    -0.73000
O297        O  0.07275674  0.94433502  0.90392440    -0.52200
O298        O  0.10881442  0.04128502  0.91543216    -0.96900
O299        O  0.08273138  0.11076631  0.98405640    -0.54100
O300        O  0.11701296  0.03236730  0.98797123    -0.73500
C301        C  0.12518689  0.00528387  0.01094909     0.98900
O302        O  0.04418807  0.90875421  0.09021204    -0.62300
O303        O  0.93924358  0.06353434  0.09709423    -0.57100
O304        O  0.03665806  0.97402659  0.10053917    -0.93800
O305        O  0.99850932  0.02412565  0.10663506    -0.92200
O306        O  0.90218193  0.96181256  0.08617236    -0.92600
O307        O  0.94200034  0.89537588  0.07915391    -0.91300
C308        C  0.01752829  0.99704592  0.11917125     1.17700
H309        H  0.92281584  0.03325272  0.02905613     0.33700
H310        H  0.00121369  0.90153026  0.02009172     0.44500
H311        H  0.06039721  0.04191931  0.04284740     0.38000
H312        H  0.03240386  0.02869365  0.91350101     0.34500
H313        H  0.91572409  0.90079874  0.99296422     0.26300
H314        H  0.06534598  0.92577243  0.88935060     0.32200
H315        H  0.11489206  0.01294096  0.91899473     0.38200
H316        H  0.91356038  0.98184657  0.09644468     0.32600
H317        H  0.94197686  0.09185417  0.09951422     0.31500
H318        H  0.00703419  0.11575648  0.08062308     0.33200
H319        H  0.09058540  0.10290839  0.00657348     0.32100
H320        H  0.95901255  0.90248661  0.09294359     0.36100
H321        H  0.03050934  0.88598474  0.08637917     0.28900
H322        H  0.94238640  0.08758911  0.90239373     0.33100
H323        H  0.04414363  0.10599904  0.91473736     0.36000
H324        H  0.91785269  0.06220020  0.08756076     0.28600
H325        H  0.06852506  0.89988705  0.08699741     0.41400
H326        H  0.00856023  0.87811639  0.92420717     0.31500
H327        H  0.94217892  0.87550676  0.01120274     0.39100
H328        H  0.06090204  0.12496704  0.99083049     0.31000
H329        H  0.07477517  0.97060539  0.88881386     0.31000
H330        H  0.98260716  0.09703115  0.89630733     0.31300
Zr331      Zr  0.46048955  0.02849697  0.95939429     2.17500
O332        O  0.45081986  0.07703049  0.90995657    -0.51100
O333        O  0.40024438  0.00489210  0.97501570    -0.74300
O334        O  0.46471316  0.99953832  0.90479377    -0.81100
O335        O  0.45340841  0.11011140  0.01613351    -0.82800
O336        O  0.50122374  0.94785778  0.90381856    -0.78400
O337        O  0.43368360  0.09157116  0.96974538    -0.90100
O338        O  0.39240287  0.95786640  0.02373136    -0.76000
O339        O  0.46403417  0.95890419  0.97693234    -0.85500
O340        O  0.44354620  0.01742878  0.02233774    -0.85200
O341        O  0.52037571  0.01399115  0.93814719    -0.72000
O342        O  0.50071099  0.06752344  0.98028852    -0.84100
Zr343      Zr  0.54731841  0.96917173  0.04155572     2.26400
Zr344      Zr  0.52389078  0.94420896  0.95718827     2.06300
Zr345      Zr  0.48384965  0.05499698  0.04339725     2.10000
Zr346      Zr  0.44803052  0.94801511  0.03995066     1.78800
O347        O  0.50419575  0.11745824  0.05678998    -0.92900
O348        O  0.43148717  0.88285058  0.02877954    -0.40700
O349        O  0.48783703  0.98522517  0.06229090    -0.77300
O350        O  0.50714983  0.93028465  0.02057591    -0.96000
O351        O  0.56440643  0.98129098  0.97871573    -0.89300
O352        O  0.54366205  0.03930167  0.02439973    -0.92200
C353        C  0.38109932  0.98042313  0.99955257     1.01600
C354        C  0.43635252  0.11635077  0.99101345     1.14500
C355        C  0.48083654  0.97150812  0.88978686     1.05300
O356        O  0.50050789  0.87807282  0.95710549    -0.94300
O357        O  0.56555627  0.89634566  0.97265529    -0.90100
O358        O  0.57459367  0.90719728  0.02625534    -0.83200
C359        C  0.57891145  0.88743352  0.99997254     1.11900
O360        O  0.56200379  0.09986533  0.90913311    -0.96300
Zr361      Zr  0.55998914  0.05062457  0.96154513     1.88900
O362        O  0.60720441  0.99283367  0.02949159    -0.73000
O363        O  0.57246416  0.94366631  0.90704444    -0.52200
O364        O  0.60336728  0.04105287  0.90924341    -0.96900
O365        O  0.57317852  0.11691463  0.97277977    -0.54100
O366        O  0.61442028  0.03924992  0.98052678    -0.73500
C367        C  0.62603695  0.01742518  0.00504200     0.98900
O368        O  0.55794397  0.92471507  0.09293729    -0.62300
O369        O  0.43045810  0.05717296  0.08784437    -0.57100
O370        O  0.53965146  0.99061597  0.09973072    -0.93800
O371        O  0.50283291  0.04211116  0.09940546    -0.92200
O372        O  0.40742302  0.96106711  0.09301188    -0.92600
O373        O  0.44736047  0.89660277  0.09054087    -0.91300
C374        C  0.52190717  0.01753076  0.11476607     1.17700
H375        H  0.42034125  0.02631058  0.03025673     0.33700
H376        H  0.50914318  0.90244916  0.02858700     0.44500
H377        H  0.55864136  0.05402083  0.03506890     0.38000
H378        H  0.52640887  0.01985681  0.91269468     0.34500
H379        H  0.42459711  0.88786954  0.00552198     0.26300
H380        H  0.56952759  0.91824924  0.89835373     0.32200
H381        H  0.60981762  0.01291108  0.91370033     0.38200
H382        H  0.42211202  0.97152675  0.10763043     0.32600
H383        H  0.43657729  0.07413324  0.10438338     0.31500
H384        H  0.52843430  0.11284759  0.05959836     0.33200
H385        H  0.59287049  0.11358042  0.98513472     0.32100
H386        H  0.47100908  0.89811414  0.09551422     0.36100
H387        H  0.54595561  0.89921630  0.09279113     0.28900
H388        H  0.43179944  0.06557462  0.90100353     0.33100
H389        H  0.53738157  0.10275637  0.90706875     0.36000
H390        H  0.41434473  0.07328647  0.07547369     0.28600
H391        H  0.58310219  0.91919325  0.08760080     0.41400
H392        H  0.51214360  0.87066690  0.93399950     0.31500
H393        H  0.45356992  0.86857045  0.02414514     0.39100
H394        H  0.55319376  0.12290777  0.99111013     0.31000
H395        H  0.56765040  0.96442168  0.88818710     0.31000
H396        H  0.47184016  0.07666444  0.89098160     0.31300
Zr397      Zr  0.20703447  0.53393441  0.96843758     2.17500
O398        O  0.18255987  0.58672263  0.93261988    -0.51100
O399        O  0.14747665  0.50774328  0.98311520    -0.74300
O400        O  0.20768081  0.51959914  0.90870519    -0.81100
O401        O  0.20357811  0.60460444  0.03668541    -0.82800
O402        O  0.24064140  0.46543580  0.90206161    -0.78400
O403        O  0.19126840  0.59971654  0.98299710    -0.90100
O404        O  0.14227301  0.45456092  0.02646602    -0.76000
O405        O  0.20963601  0.46340571  0.97937451    -0.85500
O406        O  0.19402266  0.51569153  0.03125515    -0.85200
O407        O  0.26547766  0.52011101  0.94068384    -0.72000
O408        O  0.25068899  0.56722684  0.98943914    -0.84100
Zr409      Zr  0.29922340  0.46154211  0.03800850     2.26400
Zr410      Zr  0.26797540  0.44912346  0.95318221     2.06300
Zr411      Zr  0.23814171  0.54799867  0.05222324     2.10000
Zr412      Zr  0.19813415  0.44520288  0.04206893     1.78800
O413        O  0.26861305  0.60697502  0.06040955    -0.92900
O414        O  0.18236857  0.38076873  0.02863361    -0.40700
O415        O  0.24109586  0.47725560  0.06450373    -0.77300
O416        O  0.25561766  0.42830931  0.01624297    -0.96000
O417        O  0.31185907  0.48032948  0.97525125    -0.89300
O418        O  0.29676977  0.53224246  0.02716119    -0.92200
C419        C  0.12985548  0.47937191  0.00460847     1.01600
C420        C  0.19095329  0.61810086  0.00955808     1.14500
C421        C  0.22109561  0.49266462  0.89066053     1.05300
O422        O  0.24192775  0.38774873  0.94388599    -0.94300
O423        O  0.30565958  0.39446482  0.96582489    -0.90100
O424        O  0.31926397  0.39773296  0.01934573    -0.83200
C425        C  0.31997782  0.38067411  0.99176862     1.11900
O426        O  0.30749964  0.61093494  0.92252254    -0.96300
Zr427      Zr  0.30878248  0.55058329  0.96430831     1.88900
O428        O  0.36014597  0.48374750  0.01899787    -0.73000
O429        O  0.31518314  0.45163906  0.90135463    -0.52200
O430        O  0.34466733  0.54678097  0.90595515    -0.96900
O431        O  0.33003225  0.60994853  0.98239871    -0.54100
O432        O  0.36654794  0.53163509  0.97096350    -0.73500
C433        C  0.37883301  0.50735153  0.99330755     0.98900
O434        O  0.31898412  0.41738485  0.08466603    -0.62300
O435        O  0.19150421  0.55089007  0.10377803    -0.57100
O436        O  0.29167333  0.47622392  0.09940315    -0.93800
O437        O  0.25875285  0.53053380  0.10666634    -0.92200
O438        O  0.15839893  0.45073486  0.09792362    -0.92600
O439        O  0.20266911  0.39164049  0.08960552    -0.91300
C440        C  0.27685398  0.50221011  0.11828368     1.17700
H441        H  0.17120105  0.52424076  0.04136455     0.33700
H442        H  0.25642887  0.39979558  0.02170719     0.44500
H443        H  0.31330058  0.54439827  0.03810935     0.38000
H444        H  0.26982616  0.52919275  0.91549055     0.34500
H445        H  0.16053284  0.37241697  0.04598764     0.26300
H446        H  0.31095918  0.42805038  0.89049675     0.32200
H447        H  0.32839637  0.54751866  0.88959129     0.38200
H448        H  0.14598928  0.47569304  0.09340263     0.32600
H449        H  0.17020011  0.55644275  0.09426849     0.31500
H450        H  0.25699487  0.61261835  0.08415482     0.33200
H451        H  0.34361853  0.60028574  0.00054390     0.32100
H452        H  0.22798775  0.38891579  0.08836565     0.36100
H453        H  0.30400073  0.39309308  0.08889004     0.28900
H454        H  0.16329436  0.57405419  0.92500488     0.33100
H455        H  0.28378095  0.62101092  0.92946188     0.36000
H456        H  0.18799335  0.52313481  0.11598048     0.28600
H457        H  0.34253614  0.40925605  0.07393363     0.41400
H458        H  0.25196788  0.38505680  0.91890691     0.31500
H459        H  0.17511224  0.38671099  0.00560584     0.39100
H460        H  0.30901696  0.62137412  0.99560571     0.31000
H461        H  0.31022387  0.47453753  0.88448770     0.31000
H462        H  0.20072817  0.59408498  0.91090257     0.31300
Zr463      Zr  0.71975311  0.54767518  0.95709025     2.17500
O464        O  0.71888041  0.60930355  0.91659575    -0.51100
O465        O  0.65821470  0.53470469  0.96090525    -0.74300
O466        O  0.72550683  0.53570667  0.89566038    -0.81100
O467        O  0.70714512  0.60592118  0.03739711    -0.82800
O468        O  0.75715919  0.48061639  0.88718817    -0.78400
O469        O  0.69915550  0.60727012  0.98119921    -0.90100
O470        O  0.64562265  0.47474092  0.99537989    -0.76000
O471        O  0.71883952  0.47741261  0.95920252    -0.85500
O472        O  0.69561544  0.52112277  0.01726849    -0.85200
O473        O  0.77924275  0.53093876  0.93711462    -0.72000
O474        O  0.75725879  0.57037316  0.99196639    -0.84100
Zr475      Zr  0.79108705  0.45439894  0.03587547     2.26400
Zr476      Zr  0.77837207  0.45984817  0.94123297     2.06300
Zr477      Zr  0.73350625  0.54237639  0.05214453     2.10000
Zr478      Zr  0.69518123  0.45102066  0.01914776     1.78800
O479        O  0.75164495  0.59518249  0.08098155    -0.92900
O480        O  0.68276614  0.39535359  0.99039296    -0.40700
O481        O  0.73190350  0.47174327  0.05557323    -0.77300
O482        O  0.75366935  0.43114264  0.00118016    -0.96000
O483        O  0.81565843  0.48160186  0.97617396    -0.89300
O484        O  0.79273539  0.52485649  0.03370421    -0.92200
C485        C  0.63723653  0.50567472  0.97626244     1.01600
C486        C  0.69668129  0.62263519  0.00981798     1.14500
C487        C  0.73932461  0.50978695  0.87637602     1.05300
O488        O  0.76249106  0.40400648  0.91469726    -0.94300
O489        O  0.81142964  0.40041656  0.95389973    -0.90100
O490        O  0.81837836  0.39833100  0.01059773    -0.83200
C491        C  0.82236335  0.38407425  0.98134950     1.11900
O492        O  0.82232461  0.61545985  0.93498624    -0.96300
Zr493      Zr  0.81597251  0.55172733  0.97358843     1.88900
O494        O  0.85257017  0.46664119  0.03009849    -0.73000
O495        O  0.83308707  0.47427433  0.89847336    -0.52200
O496        O  0.86063811  0.55429701  0.91971912    -0.96900
O497        O  0.83208558  0.60685926  0.00111247    -0.54100
O498        O  0.86703680  0.52503817  0.99333933    -0.73500
C499        C  0.87454062  0.49381393  0.01279694     0.98900
O500        O  0.78355965  0.39427805  0.07965337    -0.62300
O501        O  0.67778675  0.53213443  0.09401522    -0.57100
O502        O  0.78783016  0.46314426  0.09735128    -0.93800
O503        O  0.75206669  0.51491732  0.10657349    -0.92200
O504        O  0.64592782  0.45029808  0.06873152    -0.92600
O505        O  0.68621638  0.38979000  0.06126315    -0.91300
C506        C  0.77116827  0.48682697  0.11722939     1.17700
H507        H  0.67255160  0.53061909  0.02494734     0.33700
H508        H  0.75347907  0.40262124  0.00359039     0.44500
H509        H  0.80698225  0.53272133  0.04905851     0.38000
H510        H  0.78769048  0.54311811  0.91299004     0.34500
H511        H  0.65790154  0.38837575  0.00040140     0.26300
H512        H  0.83819882  0.44944121  0.88819123     0.32200
H513        H  0.87306967  0.52909404  0.92276500     0.38200
H514        H  0.65621802  0.45640552  0.08855695     0.32600
H515        H  0.68343709  0.53264517  0.11754774     0.31500
H516        H  0.73215151  0.59706427  0.10125725     0.33200
H517        H  0.85386837  0.59893007  0.00892545     0.32100
H518        H  0.70322809  0.39182412  0.07649962     0.36100
H519        H  0.76070192  0.39711537  0.09529890     0.28900
H520        H  0.69976552  0.60559784  0.90420000     0.33100
H521        H  0.80015090  0.61830749  0.92663542     0.36000
H522        H  0.66508631  0.55689468  0.08953816     0.28600
H523        H  0.77911201  0.37231400  0.06698677     0.41400
H524        H  0.74523120  0.38818460  0.93374077     0.31500
H525        H  0.68335364  0.40702544  0.96548206     0.39100
H526        H  0.81440086  0.60607646  0.02333692     0.31000
H527        H  0.82727750  0.49339003  0.87897139     0.31000
H528        H  0.74050302  0.60981785  0.89824285     0.31300
C529        C  0.47604294  0.51095829  0.95365353    -0.14100
C530        C  0.48968891  0.50342076  0.98424252     0.16300
C531        C  0.46705842  0.49781543  0.01771376     0.02600
C532        C  0.43106256  0.49880583  0.02001746    -0.12600
C533        C  0.41711522  0.50648347  0.98939592    -0.03700
C534        C  0.44013656  0.51295107  0.95583382     0.01800
C535        C  0.52772367  0.50404045  0.98040770     0.08700
N536        N  0.48017798  0.49246622  0.04958326     0.65000
H537        H  0.41395688  0.49447395  0.04597251     0.17900
N538        N  0.42775382  0.52078761  0.92359629     0.75500
H539        H  0.49346542  0.51579571  0.92786630     0.09400
C540        C  0.54682049  0.46920960  0.97792730     0.03100
C541        C  0.58285122  0.47109752  0.97424935    -0.05600
C542        C  0.60046562  0.50724829  0.97310473    -0.24000
C543        C  0.58144589  0.54256794  0.97359820     0.12400
C544        C  0.54525194  0.54057240  0.97726007    -0.13100
N545        N  0.53006979  0.43156207  0.97974343     0.64100
H546        H  0.59706179  0.44377469  0.97336208     0.11900
N547        N  0.59786237  0.58017822  0.97285807     0.60700
H548        H  0.53062994  0.56758568  0.97835959     0.08100
O549        O  0.42734457  0.55629815  0.90884716    -0.40800
O550        O  0.42742071  0.49312201  0.90535135    -0.39900
O551        O  0.48212907  0.52194844  0.06538257    -0.39900
O552        O  0.48084978  0.45789198  0.06624716    -0.37600
O553        O  0.60530793  0.60352473  0.94394332    -0.38500
O554        O  0.59603135  0.59388233  0.00153901    -0.34700
O555        O  0.53166958  0.41687507  0.95156965    -0.36100
O556        O  0.52297386  0.40897958  0.00909632    -0.40400
C557        C  0.96228167  0.44911944  0.01712095    -0.14100
C558        C  0.98193556  0.48315140  0.01744309     0.16300
C559        C  0.96618620  0.52033209  0.01698191     0.02600
C560        C  0.93107270  0.52307422  0.01560874    -0.12600
C561        C  0.91118476  0.48909017  0.01520448    -0.03700
C562        C  0.92699846  0.45167441  0.01618110     0.01800
C563        C  0.01957975  0.47988409  0.01431536     0.08700
N564        N  0.98537333  0.55544189  0.01837270     0.65000
H565        H  0.91922171  0.55190418  0.01517712     0.17900
N566        N  0.90819028  0.41633678  0.01457696     0.75500
H567        H  0.97462953  0.42061090  0.01669735     0.09400
C568        C  0.03419789  0.46679001  0.04379834     0.03100
C569        C  0.07025771  0.46498740  0.03959671    -0.05600
C570        C  0.09212824  0.47645028  0.00631479    -0.24000
C571        C  0.07713928  0.48764763  0.97653114     0.12400
C572        C  0.04105306  0.48929892  0.98078842    -0.13100
N573        N  0.01292842  0.45688837  0.07837916     0.64100
H574        H  0.08118011  0.45628458  0.06285388     0.11900
N575        N  0.09796770  0.49849059  0.94195639     0.60700
H576        H  0.02971731  0.49853633  0.95787384     0.08100
O577        O  0.89835600  0.39192771  0.04252862    -0.40800
O578        O  0.90959676  0.40494015  0.98495006    -0.39900
O579        O  0.99419770  0.58053123  0.99070911    -0.39900
O580        O  0.98531218  0.56589204  0.04812949    -0.37600
O581        O  0.10210814  0.47334692  0.92073583    -0.38500
O582        O  0.10245611  0.53493433  0.92983549    -0.34700
O583        O  0.00583391  0.42081739  0.09074919    -0.36100
O584        O  0.00939692  0.48233271  0.09927621    -0.40400
C585        C  0.37127024  0.19820739  0.97801077    -0.14100
C586        C  0.39139201  0.23214590  0.97816309     0.16300
C587        C  0.42655112  0.22779497  0.98050016     0.02600
C588        C  0.44044684  0.18983623  0.98454952    -0.12600
C589        C  0.42018597  0.15566433  0.98547544    -0.03700
C590        C  0.38541537  0.16015888  0.98114563     0.01800
C591        C  0.37408062  0.27074515  0.98092626     0.08700
N592        N  0.44844965  0.26158463  0.97927061     0.65000
H593        H  0.46738711  0.18705322  0.98695864     0.17900
N594        N  0.36350166  0.12649290  0.98183352     0.75500
H595        H  0.34409430  0.20117332  0.97657601     0.09400
C596        C  0.37200512  0.29861845  0.95100621     0.03100
C597        C  0.35464897  0.33422022  0.95530500    -0.05600
C598        C  0.33852615  0.34261015  0.98906560    -0.24000
C599        C  0.33977639  0.31393763  0.01892481     0.12400
C600        C  0.35777786  0.27872344  0.01459134    -0.13100
N601        N  0.38633156  0.29080463  0.91601497     0.64100
H602        H  0.35366692  0.35539907  0.93192354     0.11900
N603        N  0.32094609  0.31854917  0.05349059     0.60700
H604        H  0.35827632  0.25688120  0.03767877     0.08100
O605        O  0.35503764  0.12033025  0.95351665    -0.40800
O606        O  0.34568925  0.11009499  0.01111263    -0.39900
O607        O  0.45443461  0.27047789  0.00780924    -0.39900
O608        O  0.46850439  0.27526799  0.95035608    -0.37600
O609        O  0.29005548  0.30499032  0.06341352    -0.38500
O610        O  0.33759559  0.32529568  0.07654421    -0.34700
O611        O  0.36622908  0.27912098  0.89791550    -0.36100
O612        O  0.41581001  0.30567594  0.90039334    -0.40400
C613        C  0.63522295  0.80070113  0.97488685    -0.14100
C614        C  0.62851290  0.77449808  0.00689255     0.16300
C615        C  0.60720314  0.78689811  0.03700234     0.02600
C616        C  0.59314264  0.82482110  0.03455682    -0.12600
C617        C  0.59869768  0.85039643  0.00217896    -0.03700
C618        C  0.61999165  0.83792086  0.97202924     0.01800
C619        C  0.64491973  0.73504527  0.00844048     0.08700
N620        N  0.59736398  0.76036206  0.06953262     0.65000
H621        H  0.57610611  0.83338899  0.05771330     0.17900
N622        N  0.62642234  0.86241974  0.93821719     0.75500
H623        H  0.65229128  0.79214899  0.95177141     0.09400
C624        C  0.64161448  0.70891741  0.98426998     0.03100
C625        C  0.65870739  0.67293145  0.98558065    -0.05600
C626        C  0.67968312  0.66179272  0.01037718    -0.24000
C627        C  0.68343006  0.68828259  0.03430282     0.12400
C628        C  0.66611016  0.72442770  0.03303871    -0.13100
N629        N  0.62063105  0.71796198  0.95838879     0.64100
H630        H  0.65509477  0.65337281  0.96696416     0.11900
N631        N  0.70558993  0.68004651  0.05913350     0.60700
H632        H  0.66999919  0.74483379  0.05086343     0.08100
O633        O  0.61090889  0.85396341  0.91481991    -0.40800
O634        O  0.65377193  0.88399636  0.92883240    -0.39900
O635        O  0.61140517  0.76463525  0.09514213    -0.39900
O636        O  0.56904328  0.74069058  0.07550062    -0.37600
O637        O  0.73633603  0.69420632  0.05091200    -0.38500
O638        O  0.69196276  0.66952053  0.09141914    -0.34700
O639        O  0.63544260  0.72702306  0.92623887    -0.36100
O640        O  0.58937318  0.70552829  0.96585523    -0.40400
C641        C  0.71641501  0.00294838  0.02576393    -0.14100
C642        C  0.73742836  0.01924605  0.99319097     0.16300
C643        C  0.72152923  0.03696518  0.96574097     0.02600
C644        C  0.68534350  0.03766028  0.97123701    -0.12600
C645        C  0.66408467  0.01975882  0.00322211    -0.03700
C646        C  0.68013489  0.00245910  0.03091895     0.01800
C647        C  0.77540453  0.01386505  0.98822761     0.08700
N648        N  0.74120034  0.05135322  0.93111891     0.65000
H649        H  0.67395980  0.05047895  0.94922766     0.17900
N650        N  0.66042416  0.98397152  0.06431435     0.75500
H651        H  0.72835755  0.98927925  0.04711838     0.09400
C652        C  0.79967316  0.04605937  0.97955324     0.03100
C653        C  0.83486695  0.03894386  0.97823457    -0.05600
C654        C  0.84656200  0.00040437  0.98637825    -0.24000
C655        C  0.82237981  0.96811896  0.99469875     0.12400
C656        C  0.78724954  0.97511664  0.99513265    -0.13100
N657        N  0.78915805  0.08634252  0.97466961     0.64100
H658        H  0.85293505  0.06420862  0.97267156     0.11900
N659        N  0.83289168  0.92812021  0.00241595     0.60700
H660        H  0.76888256  0.95008837  0.00166144     0.08100
O661        O  0.65846667  0.00159448  0.09092474    -0.40800
O662        O  0.65434710  0.94696422  0.06910514    -0.39900
O663        O  0.74935717  0.02701286  0.90948078    -0.39900
O664        O  0.73983942  0.08769973  0.91913458    -0.37600
O665        O  0.82690686  0.91119782  0.03416800    -0.38500
O666        O  0.83911971  0.90716774  0.97779782    -0.34700
O667        O  0.78325315  0.10454812  0.00116230    -0.36100
O668        O  0.79747995  0.10636243  0.94415273    -0.40400
C669        C  0.22208621  0.02668585  0.99683684    -0.14100
C670        C  0.23401025  0.98813281  0.00370708     0.14700
C671        C  0.20978027  0.95619702  0.01627228     0.02600
C672        C  0.17432287  0.96315122  0.02054511    -0.12600
C673        C  0.16230410  0.00143132  0.01193913    -0.03700
C674        C  0.18660156  0.03363498  0.00044477     0.01800
C675        C  0.27158902  0.98269767  0.00101559     0.08700
N676        N  0.22065344  0.91624389  0.02320379     0.65000
H677        H  0.15622058  0.93792801  0.02893330     0.17900
N678        N  0.17593205  0.07354085  0.99258571     0.75500
H679        H  0.24044400  0.05167293  0.98889983     0.09400
C680        C  0.29606944  0.99587890  0.96954299     0.03100
C681        C  0.33155779  0.99375150  0.96946437    -0.05600
C682        C  0.34333921  0.97914530  0.00041639    -0.24000
C683        C  0.31857708  0.96586465  0.03190926     0.12400
C684        C  0.28316957  0.96770170  0.03178168    -0.13100
N685        N  0.28545836  0.01182407  0.93751513     0.64100
H686        H  0.34995878  0.00413599  0.94503651     0.11900
N687        N  0.32854138  0.95271029  0.06484988     0.60700
H688        H  0.26453276  0.95890104  0.05639182     0.08100
O689        O  0.17923043  0.08902775  0.96059628    -0.40800
O690        O  0.17309630  0.09587987  0.01610467    -0.39900
O691        O  0.21747134  0.89983864  0.05492489    -0.39900
O692        O  0.22338663  0.89471727  0.99908371    -0.37600
O693        O  0.32733407  0.97666772  0.08688610    -0.38500
O694        O  0.32886638  0.91590812  0.07550348    -0.34700
O695        O  0.28635425  0.04901421  0.92845574    -0.36100
O696        O  0.28511344  0.98962120  0.91434649    -0.40400
C697        C  0.91147218  0.22697672  0.01272892    -0.14100
C698        C  0.88869027  0.23204875  0.98913289     0.16300
C699        C  0.88513457  0.20172739  0.96905473     0.02600
C700        C  0.90328105  0.16666050  0.97373831    -0.12600
C701        C  0.92589689  0.16100281  0.99768145    -0.03700
C702        C  0.93022656  0.19209406  0.01702263     0.01800
C703        C  0.86951920  0.26951513  0.98574489     0.08700
N704        N  0.86288816  0.20563378  0.94408905     0.65000
H705        H  0.89928543  0.14352639  0.95847674     0.17900
N706        N  0.95452257  0.18982425  0.03987354     0.75500
H707        H  0.91520079  0.25066790  0.02751567     0.09400
C708        C  0.84627423  0.28051908  0.01514255     0.03100
C709        C  0.83144192  0.31778953  0.01263357    -0.05600
C710        C  0.83876053  0.34482238  0.98106436    -0.24000
C711        C  0.86109576  0.33335387  0.95109388     0.12400
C712        C  0.87645340  0.29596303  0.95377134    -0.13100
N713        N  0.83678677  0.25384245  0.04764043     0.64100
H714        H  0.81366497  0.32539947  0.03569742     0.11900
N715        N  0.86968488  0.35968902  0.91833470     0.60700
H716        H  0.89461583  0.28799854  0.93108700     0.08100
O717        O  0.94320853  0.18458131  0.07296835    -0.40800
O718        O  0.98491285  0.20416392  0.02758703    -0.39900
O719        O  0.87635915  0.21376772  0.91150493    -0.39900
O720        O  0.83269405  0.18999629  0.95331800    -0.37600
O721        O  0.89700985  0.38123118  0.91180004    -0.38500
O722        O  0.85556521  0.35392503  0.89314147    -0.34700
O723        O  0.85015372  0.25903900  0.07347934    -0.36100
O724        O  0.80905217  0.23313535  0.05333655    -0.40400
C725        C  0.09684688  0.77288999  0.98695822    -0.14100
C726        C  0.12121319  0.76808455  0.00885328     0.16300
C727        C  0.12853845  0.80009293  0.02561414     0.02600
C728        C  0.11104895  0.83572208  0.02073593    -0.12600
C729        C  0.08641969  0.84077784  0.99891589    -0.03700
C730        C  0.07953270  0.80867083  0.98173141     0.01800
C731        C  0.14058851  0.73063009  0.01079711     0.08700
N732        N  0.15482897  0.79787071  0.04622146     0.65000
H733        H  0.11743061  0.85996480  0.03371432     0.17900
N734        N  0.05452965  0.81113393  0.95964120     0.75500
H735        H  0.09135726  0.74859357  0.97357924     0.09400
C736        C  0.13490074  0.70150407  0.04127766     0.03100
C737        C  0.15197690  0.66531935  0.04033987    -0.05600
C738        C  0.17439880  0.65721025  0.00936224    -0.24000
C739        C  0.18017927  0.68647857  0.97897735     0.12400
C740        C  0.16331020  0.72269627  0.98000376    -0.13100
N741        N  0.11083169  0.70724360  0.07287090     0.64100
H742        H  0.14697526  0.64298089  0.06376587     0.11900
N743        N  0.20419830  0.68078632  0.94733428     0.60700
H744        H  0.16787244  0.74484464  0.95644217     0.08100
O745        O  0.02462334  0.79556891  0.97223324    -0.40800
O746        O  0.06507555  0.81769447  0.92644556    -0.39900
O747        O  0.18570364  0.80803752  0.03088495    -0.39900
O748        O  0.14587087  0.79774011  0.07922531    -0.37600
O749        O  0.23504825  0.69404031  0.94252157    -0.38500
O750        O  0.19258411  0.67354464  0.92098557    -0.34700
O751        O  0.08087583  0.69111409  0.07908603    -0.36100
O752        O  0.12246350  0.71706188  0.09834205    -0.40400
C753        C  0.69927805  0.52157618  0.71862910    -0.14100
C754        C  0.73003417  0.53366473  0.72762101     0.16300
C755        C  0.75877875  0.54653898  0.70011319     0.02600
C756        C  0.75677096  0.54556010  0.66478849    -0.12600
C757        C  0.72644243  0.53221457  0.65540054    -0.03700
C758        C  0.69695532  0.52131420  0.68309131     0.01800
C759        C  0.73244521  0.52849226  0.76569569     0.08700
N760        N  0.79083494  0.55938764  0.70732213     0.65000
H761        H  0.77975470  0.55487586  0.64458131     0.17900
N762        N  0.66430938  0.51028138  0.67604218     0.75500
H763        H  0.67687641  0.51183289  0.73950253     0.09400
C764        C  0.73329209  0.56077841  0.78452882     0.03100
C765        C  0.73499350  0.55383024  0.82051842    -0.05600
C766        C  0.73565743  0.51509933  0.83867421    -0.24000
C767        C  0.73386979  0.48275068  0.81998004     0.12400
C768        C  0.73238796  0.48975441  0.78392728    -0.13100
N769        N  0.73085267  0.60076156  0.76819519     0.64100
H770        H  0.73600938  0.57910961  0.83430426     0.11900
N771        N  0.73173684  0.44261794  0.83742581     0.60700
H772        H  0.73088197  0.46462992  0.77006330     0.08100
O773        O  0.65585348  0.47392471  0.67986869    -0.40800
O774        O  0.64078929  0.53566151  0.67658757    -0.39900
O775        O  0.81552591  0.53550933  0.70642933    -0.39900
O776        O  0.79785221  0.59616334  0.70276538    -0.37600
O777        O  0.70222192  0.42547129  0.84814139    -0.38500
O778        O  0.75852524  0.42184136  0.83339430    -0.34700
O779        O  0.70134661  0.61625274  0.77190433    -0.36100
O780        O  0.75764674  0.62322953  0.76075713    -0.40400
C781        C  0.80165640  0.48469409  0.27806519    -0.14100
C782        C  0.77222183  0.47286682  0.26682406     0.16300
C783        C  0.74320516  0.45614231  0.29229852     0.02600
C784        C  0.74330477  0.45368847  0.32838726    -0.12600
C785        C  0.77210474  0.46728297  0.34008396    -0.03700
C786        C  0.80214532  0.48170322  0.31418834     0.01800
C787        C  0.77295112  0.47674502  0.22837507     0.08700
N788        N  0.71285602  0.44273594  0.28209259     0.65000
H789        H  0.72012291  0.44193269  0.34732515     0.17900
N790        N  0.83322344  0.49422257  0.32363336     0.75500
H791        H  0.82453282  0.49633047  0.25857178     0.09400
C792        C  0.77302205  0.51416521  0.20741354     0.03100
C793        C  0.77329118  0.51657568  0.17122961    -0.05600
C794        C  0.77394987  0.48224417  0.15504379    -0.24000
C795        C  0.77523956  0.44477059  0.17596679     0.12400
C796        C  0.77455961  0.44244637  0.21229471    -0.13100
N797        N  0.77155993  0.54999708  0.22263401     0.64100
H798        H  0.77264309  0.54562337  0.15573006     0.11900
N799        N  0.77506185  0.40857281  0.16157438     0.60700
H800        H  0.77497570  0.41357447  0.22816129     0.08100
O801        O  0.84161478  0.53071512  0.31774361    -0.40800
O802        O  0.85633762  0.46910755  0.32756401    -0.39900
O803        O  0.70637599  0.40589575  0.28572038    -0.39900
O804        O  0.68865148  0.46663041  0.27912683    -0.37600
O805        O  0.80314684  0.39039636  0.15485306    -0.38500
O806        O  0.74657780  0.38956733  0.16600669    -0.34700
O807        O  0.79912381  0.57053938  0.21890157    -0.36100
O808        O  0.74255079  0.56594337  0.23080485    -0.40400
C809        C  0.24643795  0.52355939  0.72027269    -0.14100
C810        C  0.21599917  0.50550581  0.74177223     0.16300
C811        C  0.18849175  0.49621963  0.72596102     0.02600
C812        C  0.19261780  0.50309830  0.68900275    -0.12600
C813        C  0.22378760  0.51965311  0.66691919    -0.03700
C814        C  0.25064074  0.53086242  0.68333860     0.01800
C815        C  0.21353916  0.49828878  0.78062389     0.08700
N816        N  0.15657339  0.47858205  0.74685479     0.65000
H817        H  0.17140685  0.49425741  0.67763022     0.17900
N818        N  0.28240440  0.54983472  0.66346681     0.75500
H819        H  0.26725503  0.53217033  0.73234560     0.09400
C820        C  0.23502176  0.47101921  0.79610294     0.03100
C821        C  0.23578973  0.46883655  0.83202168    -0.05600
C822        C  0.21572176  0.49383223  0.85353194    -0.24000
C823        C  0.19310420  0.52026758  0.83792228     0.12400
C824        C  0.19235306  0.52213452  0.80188999    -0.13100
N825        N  0.25672943  0.44555401  0.77558464     0.64100
H826        H  0.25320272  0.44797676  0.84270969     0.11900
N827        N  0.17008688  0.54514144  0.85771452     0.60700
H828        H  0.17577827  0.54332846  0.79018300     0.08100
O829        O  0.31014155  0.53087680  0.66261695    -0.40800
O830        O  0.28433582  0.58727990  0.65816601    -0.39900
O831        O  0.13013894  0.49980723  0.75198206    -0.39900
O832        O  0.15250556  0.44129272  0.75137534    -0.37600
O833        O  0.17916443  0.58106292  0.85570192    -0.38500
O834        O  0.13803737  0.53628927  0.86421030    -0.34700
O835        O  0.28883207  0.45401859  0.76563887    -0.36100
O836        O  0.24612272  0.41046760  0.77615789    -0.40400
C837        C  0.24714399  0.46101179  0.29184782    -0.14100
C838        C  0.27658594  0.48078407  0.26969882     0.16300
C839        C  0.30081397  0.49829509  0.28548527     0.02600
C840        C  0.29537017  0.49557833  0.32251508    -0.12600
C841        C  0.26566709  0.47616579  0.34506759    -0.03700
C842        C  0.24129070  0.45871661  0.32894687     0.01800
C843        C  0.27954658  0.48609257  0.23041128     0.08700
N844        N  0.33133402  0.51890981  0.26438074     0.65000
H845        H  0.31443968  0.50973000  0.33356108     0.17900
N846        N  0.21056925  0.43797192  0.34930448     0.75500
H847        H  0.22788500  0.44807524  0.28018056     0.09400
C848        C  0.28235485  0.45366450  0.21121056     0.03100
C849        C  0.28276968  0.45995228  0.17470394    -0.05600
C850        C  0.27927102  0.49804227  0.15649485    -0.24000
C851        C  0.27600518  0.53053599  0.17595332     0.12400
C852        C  0.27664856  0.52426976  0.21226636    -0.13100
N853        N  0.28460801  0.41396394  0.22827295     0.64100
H854        H  0.28466194  0.43444539  0.16078033     0.11900
N855        N  0.27211762  0.57020859  0.15954424     0.60700
H856        H  0.27374155  0.54940907  0.22669283     0.08100
O857        O  0.18214931  0.45579855  0.35204342    -0.40800
O858        O  0.20980185  0.40057923  0.35242619    -0.39900
O859        O  0.33304577  0.55632560  0.26117175    -0.39900
O860        O  0.35907661  0.50008262  0.25792000    -0.37600
O861        O  0.29756952  0.59454101  0.15352968    -0.38500
O862        O  0.24188870  0.58337269  0.16071453    -0.34700
O863        O  0.25750792  0.39193222  0.23696382    -0.36100
O864        O  0.31395855  0.39812759  0.22493490    -0.40400
C865        C  0.53367320  0.47345974  0.48498498    -0.14100
C866        C  0.51699490  0.50758942  0.49548215     0.16300
C867        C  0.53551175  0.53425075  0.51010761     0.02600
C868        C  0.56987079  0.52665766  0.51338152    -0.12600
C869        C  0.58685336  0.49300289  0.50217128    -0.03700
C870        C  0.56820366  0.46599236  0.48803846     0.01800
C871        C  0.47929155  0.51214891  0.49480886     0.08700
N872        N  0.52039459  0.56993938  0.52077070     0.65000
H873        H  0.58369909  0.54799722  0.52397672     0.17900
N874        N  0.58305348  0.42979239  0.47839776     0.75500
H875        H  0.51944016  0.45171622  0.47530568     0.09400
C876        C  0.46597410  0.51181566  0.46380253     0.03100
C877        C  0.42987740  0.51278486  0.46547979    -0.05600
C878        C  0.40606709  0.51365209  0.49770035    -0.24000
C879        C  0.41976894  0.51350018  0.52878104     0.12400
C880        C  0.45576383  0.51292624  0.52687818    -0.13100
N881        N  0.48862011  0.51081306  0.43023718     0.64100
H882        H  0.42052490  0.51280958  0.44120110     0.11900
N883        N  0.39792394  0.51179101  0.56307575     0.60700
H884        H  0.46533591  0.51145960  0.55118022     0.08100
O885        O  0.59341462  0.42713177  0.44599679    -0.40800
O886        O  0.57636059  0.39835530  0.50043578    -0.39900
O887        O  0.50872208  0.57093688  0.55329089    -0.39900
O888        O  0.52840658  0.60225284  0.50021376    -0.37600
O889        O  0.39211584  0.47851596  0.58261837    -0.38500
O890        O  0.39455285  0.54296301  0.57732308    -0.34700
O891        O  0.49252009  0.47826893  0.41818619    -0.36100
O892        O  0.49609436  0.54283059  0.40913417    -0.40400
C893        C  0.96860448  0.53001362  0.46717080    -0.14100
C894        C  0.97662287  0.50846741  0.49795334     0.16300
C895        C  0.94905539  0.49103808  0.52517675     0.02600
C896        C  0.91471811  0.49501292  0.52092618    -0.12600
C897        C  0.90680899  0.51544190  0.48975841    -0.03700
C898        C  0.93417346  0.53301518  0.46254013     0.01800
C899        C  0.01355648  0.50598248  0.50172810     0.08700
N900        N  0.95525081  0.46826706  0.55700591     0.65000
H901        H  0.89399811  0.48111954  0.54202342     0.17900
N902        N  0.92759649  0.55522391  0.43067510     0.75500
H903        H  0.98913946  0.54517766  0.44671490     0.09400
C904        C  0.03980471  0.49306044  0.47558145     0.03100
C905        C  0.07410304  0.49115666  0.48025218    -0.05600
C906        C  0.08377954  0.50273824  0.51023055    -0.24000
C907        C  0.05757686  0.51716642  0.53578592     0.12400
C908        C  0.02300995  0.51839546  0.53133682    -0.13100
N909        N  0.03236639  0.48157467  0.44399400     0.64100
H910        H  0.09328676  0.48044129  0.45980557     0.11900
N911        N  0.06535523  0.53196327  0.56582704     0.60700
H912        H  0.00351476  0.53016721  0.55084544     0.08100
O913        O  0.93027651  0.53830366  0.40356150    -0.40800
O914        O  0.92938505  0.59267307  0.42687052    -0.39900
O915        O  0.94920962  0.48351946  0.58520177    -0.39900
O916        O  0.95595300  0.43093361  0.55915982    -0.37600
O917        O  0.06918552  0.56898941  0.56453427    -0.38500
O918        O  0.05818301  0.51034544  0.59567722    -0.34700
O919        O  0.03923085  0.50597196  0.41566612    -0.36100
O920        O  0.02959456  0.44508278  0.44207085    -0.40400
C921        C  0.49322433  0.94016789  0.79783495    -0.14100
C922        C  0.47949449  0.97271423  0.77945527     0.16300
C923        C  0.46292426  0.00219924  0.79817511     0.02600
C924        C  0.46196464  0.99977383  0.83443449    -0.12600
C925        C  0.47753769  0.96846109  0.85285298    -0.03700
C926        C  0.49251158  0.93765556  0.83414194     0.01800
C927        C  0.48198610  0.97435245  0.74097937     0.08700
N928        N  0.44682782  0.03485519  0.78094753     0.65000
H929        H  0.44986893  0.02354745  0.84784853     0.17900
N930        N  0.50777083  0.90397721  0.85098889     0.75500
H931        H  0.50520904  0.91682095  0.78369505     0.09400
C932        C  0.50743132  0.99818346  0.71601035     0.03100
C933        C  0.51002568  0.99734127  0.67985810    -0.05600
C934        C  0.48771831  0.97295548  0.66755284    -0.24000
C935        C  0.46260575  0.94828688  0.69300742     0.12400
C936        C  0.46016240  0.94925413  0.72922961    -0.13100
N937        N  0.53167119  0.02253045  0.72678095     0.64100
H938        H  0.52981039  0.01619285  0.66135887     0.11900
N939        N  0.43886642  0.92256641  0.68300673     0.60700
H940        H  0.44100043  0.93021324  0.74840747     0.08100
O941        O  0.54046968  0.90314240  0.84676498    -0.40800
O942        O  0.49032965  0.87171234  0.86022631    -0.39900
O943        O  0.41421350  0.03373020  0.78412016    -0.39900
O944        O  0.46276479  0.06810219  0.77276470    -0.37600
O945        O  0.44608603  0.88646288  0.68256872    -0.38500
O946        O  0.40766375  0.93264974  0.68495715    -0.34700
O947        O  0.56243841  0.01104200  0.72531484    -0.36100
O948        O  0.52574966  0.05894501  0.72698834    -0.40400
C949        C  0.53017750  0.04440685  0.27708184    -0.14100
C950        C  0.50778225  0.01977026  0.26560159     0.16300
C951        C  0.48281981  0.99562004  0.29084619     0.02600
C952        C  0.48051471  0.99667911  0.32697107    -0.12600
C953        C  0.50266055  0.02162204  0.33901039    -0.03700
C954        C  0.52781760  0.04588885  0.31324318     0.01800
C955        C  0.51151497  0.01943909  0.22713599     0.08700
N956        N  0.45986232  0.96934762  0.28041652     0.65000
H957        H  0.46109022  0.97753354  0.34565276     0.17900
N958        N  0.55086556  0.07279655  0.32279678     0.75500
H959        H  0.54950242  0.06301750  0.25770586     0.09400
C960        C  0.49123933  0.04355974  0.20727059     0.03100
C961        C  0.49595437  0.04322164  0.17080288    -0.05600
C962        C  0.52114815  0.01952280  0.15299937    -0.24000
C963        C  0.54284672  0.99698848  0.17296787     0.12400
C964        C  0.53756298  0.99693029  0.20969346    -0.13100
N965        N  0.46625599  0.06937171  0.22354437     0.64100
H966        H  0.47926426  0.06152536  0.15654197     0.11900
N967        N  0.57117667  0.97516058  0.15665526     0.60700
H968        H  0.55423465  0.97951713  0.22467609     0.08100
O969        O  0.54175634  0.10816489  0.32447683    -0.40800
O970        O  0.58276632  0.06509811  0.31886650    -0.39900
O971        O  0.46687091  0.93301548  0.28182401    -0.39900
O972        O  0.42903299  0.97963952  0.28008678    -0.37600
O973        O  0.60130626  0.99094268  0.14948942    -0.38500
O974        O  0.56808353  0.93782277  0.16029853    -0.34700
O975        O  0.47480317  0.10534769  0.22226427    -0.36100
O976        O  0.43441253  0.05933653  0.23029551    -0.40400
C977        C  0.38066521  0.77997454  0.54357991    -0.14100
C978        C  0.35966997  0.77876322  0.51877196     0.16300
C979        C  0.35570416  0.81363926  0.49573540     0.02600
C980        C  0.37451690  0.84822678  0.49639441    -0.12600
C981        C  0.39653980  0.84928692  0.52045655    -0.03700
C982        C  0.39870016  0.81480437  0.54503013     0.01800
C983        C  0.34138896  0.74093656  0.51881913     0.08700
N984        N  0.33118693  0.81534095  0.47313302     0.65000
H985        H  0.37134054  0.87470018  0.47830067     0.17900
N986        N  0.41972857  0.81389270  0.57097447     0.75500
H987        H  0.38322032  0.75347883  0.56193302     0.09400
C988        C  0.34989357  0.71876493  0.49051171     0.03100
C989        C  0.33305060  0.68220864  0.49269030    -0.05600
C990        C  0.30873294  0.66644725  0.52307768    -0.24000
C991        C  0.30109975  0.68775528  0.55195702     0.12400
C992        C  0.31726508  0.72493979  0.54946026    -0.13100
N993        N  0.37711019  0.73133252  0.46046239     0.64100
H994        H  0.33952475  0.66555088  0.47064047     0.11900
N995        N  0.27673745  0.67265840  0.58362321     0.60700
H996        H  0.31119096  0.74133952  0.57169414     0.08100
O997        O  0.44927880  0.79860850  0.56512207    -0.40800
O998        O  0.40519661  0.81684931  0.60248855    -0.39900
O999        O  0.30063433  0.82576908  0.48476148    -0.39900
O1000       O  0.34230043  0.81887986  0.44006552    -0.37600
O1001       O  0.28817050  0.65701551  0.61022423    -0.38500
O1002       O  0.24621469  0.68549971  0.58821884    -0.34700
O1003       O  0.40681826  0.71692342  0.45996425    -0.36100
O1004       O  0.36905645  0.74492471  0.43141196    -0.40400
C1005       C  0.61473777  0.20359073  0.51452476    -0.14100
C1006       C  0.63050928  0.22268048  0.48082299     0.16300
C1007       C  0.62647960  0.20583524  0.45088310     0.02600
C1008       C  0.60591005  0.17107880  0.45529023    -0.12600
C1009       C  0.58927801  0.15216678  0.48919480    -0.03700
C1010       C  0.59442946  0.16885296  0.51910188     0.01800
C1011       C  0.65145387  0.25949413  0.47862093     0.08700
N1012       N  0.64432959  0.22228578  0.41601972     0.65000
H1013       H  0.60340415  0.15860448  0.43186984     0.17900
N1014       N  0.57856735  0.15210065  0.55448069     0.75500
H1015       H  0.61791305  0.21613005  0.53773566     0.09400
C1016       C  0.63996229  0.29712453  0.46623506     0.03100
C1017       C  0.65824416  0.33141029  0.46872294    -0.05600
C1018       C  0.68721078  0.32958238  0.48492180    -0.24000
C1019       C  0.69812595  0.29170402  0.49828091     0.12400
C1020       C  0.68059995  0.25728741  0.49439349    -0.13100
N1021       N  0.60787838  0.30151461  0.45441620     0.64100
H1022       H  0.64835296  0.35989261  0.45945410     0.11900
N1023       N  0.72612706  0.28729905  0.51673217     0.60700
H1024       H  0.68894411  0.22853092  0.50513248     0.08100
O1025       O  0.59754090  0.13483692  0.57416353    -0.40800
O1026       O  0.55015374  0.16584194  0.56873604    -0.39900
O1027       O  0.67185383  0.20635392  0.40229794    -0.39900
O1028       O  0.62781637  0.24343928  0.39598709    -0.37600
O1029       O  0.75509928  0.27600230  0.50119188    -0.38500
O1030       O  0.71927960  0.28371442  0.55013581    -0.34700
O1031       O  0.58034817  0.30496853  0.47692693    -0.36100
O1032       O  0.60863887  0.31423093  0.42220970    -0.40400
C1033       C  0.95201502  0.01877846  0.72328264    -0.14100
C1034       C  0.98400287  0.02313445  0.73302347     0.16300
C1035       C  0.01427872  0.03129731  0.70643209     0.02600
C1036       C  0.01227730  0.03397706  0.67081230    -0.12600
C1037       C  0.98055731  0.02798683  0.66060340    -0.03700
C1038       C  0.94985661  0.02123398  0.68757043     0.01800
C1039       C  0.98536269  0.01599401  0.77104609     0.08700
N1040       N  0.04770346  0.03443027  0.71501003     0.65000
H1041       H  0.03627219  0.03934239  0.65113100     0.17900
N1042       N  0.91635106  0.01598171  0.67967389     0.75500
H1043       H  0.92857446  0.01253320  0.74366826     0.09400
C1044       C  0.98711417  0.04752710  0.79029672     0.03100
C1045       C  0.98677377  0.03948142  0.82652916    -0.05600
C1046       C  0.98490666  0.00031292  0.84440072    -0.24000
C1047       C  0.98307869  0.96863174  0.82505273     0.12400
C1048       C  0.98310682  0.97678202  0.78868793    -0.13100
N1049       N  0.98861282  0.08796130  0.77372906     0.64100
H1050       H  0.98852522  0.06428864  0.84067801     0.11900
N1051       N  0.97990475  0.92825766  0.84192558     0.60700
H1052       H  0.98114949  0.95235919  0.77412927     0.08100
O1053       O  0.89639005  0.04508489  0.67906951    -0.40800
O1054       O  0.90346408  0.98128819  0.68364086    -0.39900
O1055       O  0.06771115  0.00545959  0.71238415    -0.39900
O1056       O  0.06063652  0.06848977  0.71428202    -0.37600
O1057       O  0.94996041  0.91228673  0.85308190    -0.38500
O1058       O  0.00593931  0.90639914  0.83706316    -0.34700
O1059       O  0.96102251  0.10739474  0.77692790    -0.36100
O1060       O  0.01752880  0.10661838  0.76564829    -0.40400
C1061       C  0.01682843  0.01303159  0.28128630    -0.14100
C1062       C  0.00694548  0.97788542  0.27080869     0.16300
C1063       C  0.99695341  0.94409845  0.29655967     0.02600
C1064       C  0.99623127  0.94633623  0.33235397    -0.12600
C1065       C  0.00567425  0.98171613  0.34285812    -0.03700
C1066       C  0.01622966  0.01528547  0.31693834     0.01800
C1067       C  0.00803357  0.97780542  0.23267162     0.08700
N1068       N  0.98713130  0.90751983  0.28695961     0.65000
H1069       H  0.98822025  0.92035335  0.35204734     0.17900
N1070       N  0.02411133  0.05263700  0.32653409     0.75500
H1071       H  0.02451966  0.03914573  0.26164385     0.09400
C1072       C  0.98017669  0.99214527  0.21721310     0.03100
C1073       C  0.98417835  0.99863548  0.18033562    -0.05600
C1074       C  0.01555751  0.99066862  0.15807212    -0.24000
C1075       C  0.04321482  0.97510624  0.17372899     0.12400
C1076       C  0.03927318  0.96920155  0.21073880    -0.13100
N1077       N  0.94765722  0.00060222  0.23857551     0.64100
H1078       H  0.96230124  0.00959828  0.16909642     0.11900
N1079       N  0.07592367  0.96667252  0.15263503     0.60700
H1080       H  0.06109137  0.95894667  0.22239914     0.08100
O1081       O  0.00006041  0.07702826  0.33210709    -0.40800
O1082       O  0.05533657  0.06513899  0.31973639    -0.39900
O1083       O  0.00773029  0.87901024  0.28730756    -0.39900
O1084       O  0.95545550  0.90052086  0.28766011    -0.37600
O1085       O  0.09994257  0.99299135  0.14456816    -0.38500
O1086       O  0.08344761  0.93099255  0.15013128    -0.34700
O1087       O  0.93997816  0.03631103  0.24069286    -0.36100
O1088       O  0.92372504  0.97418295  0.24682527    -0.40400
C1089       C  0.76998932  0.98277560  0.55705021    -0.14100
C1090       C  0.75732569  0.98752279  0.52575861     0.16300
C1091       C  0.78083672  0.99505495  0.49292749     0.02600
C1092       C  0.81658254  0.99669353  0.49184098    -0.12600
C1093       C  0.82973364  0.99158824  0.52310525    -0.03700
C1094       C  0.80578717  0.98486359  0.55613984     0.01800
C1095       C  0.71938457  0.98658285  0.52810030     0.08700
N1096       N  0.76888181  0.00188730  0.46041736     0.65000
H1097       H  0.83409753  0.00251030  0.46617104     0.17900
N1098       N  0.81704694  0.97904796  0.58904600     0.75500
H1099       H  0.75189502  0.97752461  0.58241531     0.09400
C1100       C  0.70088580  0.95091027  0.52935368     0.03100
C1101       C  0.66493392  0.95134434  0.53128400    -0.05600
C1102       C  0.64677924  0.98692714  0.53225473    -0.24000
C1103       C  0.66540614  0.02249652  0.53206144     0.12400
C1104       C  0.70140001  0.02195613  0.53005450    -0.13100
N1105       N  0.71828335  0.91409823  0.52814627     0.64100
H1106       H  0.65120649  0.92370818  0.53146478     0.11900
N1107       N  0.64870812  0.05975050  0.53221019     0.60700
H1108       H  0.71551065  0.04945685  0.52946958     0.08100
O1109       O  0.81660941  0.00789661  0.60610716    -0.40800
O1110       O  0.81761933  0.94416323  0.60513341    -0.39900
O1111       O  0.76779241  0.03711589  0.44524901    -0.39900
O1112       O  0.76876576  0.97366634  0.44274896    -0.37600
O1113       O  0.64138715  0.07385015  0.56091442    -0.38500
O1114       O  0.65096444  0.08278736  0.50332773    -0.34700
O1115       O  0.71787230  0.89102264  0.55666977    -0.36100
O1116       O  0.72597049  0.90068261  0.49910087    -0.40400
C1117       C  0.21561942  0.99458981  0.45233739    -0.14100
C1118       C  0.22948069  0.00936941  0.47841141     0.16300
C1119       C  0.20656961  0.02438303  0.50604914     0.02600
C1120       C  0.17063620  0.02320790  0.50772669    -0.12600
C1121       C  0.15642940  0.00880710  0.48151901    -0.03700
C1122       C  0.17967303  0.99449384  0.45333458     0.01800
C1123       C  0.26790972  0.01101393  0.47517901     0.08700
N1124       N  0.21922963  0.04113918  0.53271088     0.65000
H1125       H  0.15382022  0.03435416  0.52965313     0.17900
N1126       N  0.16759935  0.97945486  0.42550293     0.75500
H1127       H  0.23294974  0.98380190  0.43049995     0.09400
C1128       C  0.28795587  0.97645427  0.47523830     0.03100
C1129       C  0.32396185  0.97942144  0.47302181    -0.05600
C1130       C  0.34082132  0.01639647  0.47021670    -0.24000
C1131       C  0.32113968  0.05113048  0.46759119     0.12400
C1132       C  0.28502684  0.04812308  0.47040889    -0.13100
N1133       N  0.27214959  0.93794483  0.47870320     0.64100
H1134       H  0.33857439  0.95239790  0.47498804     0.11900
N1135       N  0.33757450  0.08968626  0.46016185     0.60700
H1136       H  0.27029148  0.07502899  0.46834727     0.08100
O1137       O  0.16582802  0.94236138  0.42599359    -0.40800
O1138       O  0.16833991  0.00214878  0.39669584    -0.39900
O1139       O  0.22004381  0.07842283  0.53125376    -0.39900
O1140       O  0.21986933  0.01955326  0.56175114    -0.37600
O1141       O  0.34810070  0.10510995  0.42826109    -0.38500
O1142       O  0.33301228  0.11173912  0.48397191    -0.34700
O1143       O  0.27587839  0.92053031  0.45177979    -0.36100
O1144       O  0.26356068  0.91769924  0.50909604    -0.40400
C1145       C  0.84807175  0.72860334  0.46521318    -0.14100
C1146       C  0.85804109  0.73591563  0.49616674     0.16300
C1147       C  0.84658500  0.70967669  0.52792723     0.02600
C1148       C  0.82644077  0.67595290  0.52784460    -0.12600
C1149       C  0.81672303  0.66811772  0.49676419    -0.03700
C1150       C  0.82741834  0.69530957  0.46515861     0.01800
C1151       C  0.87825956  0.77271665  0.49460965     0.08700
N1152       N  0.85359773  0.71760303  0.56081782     0.65000
H1153       H  0.81791134  0.65604631  0.55250870     0.17900
N1154       N  0.81853355  0.68936554  0.43250873     0.75500
H1155       H  0.85635578  0.74907561  0.44082826     0.09400
C1156       C  0.91383920  0.77236161  0.49577450     0.03100
C1157       C  0.93219863  0.80821508  0.49236373    -0.05600
C1158       C  0.91600404  0.84477415  0.48699903    -0.24000
C1159       C  0.88063315  0.84507899  0.48440264     0.12400
C1160       C  0.86212763  0.80910288  0.48845785    -0.13100
N1161       N  0.93224807  0.73615971  0.49855662     0.64100
H1162       H  0.95949185  0.80740992  0.49372091     0.11900
N1163       N  0.86266940  0.88132914  0.47906332     0.60700
H1164       H  0.83493142  0.80952097  0.48670414     0.08100
O1165       O  0.79389842  0.70862941  0.42256173    -0.40800
O1166       O  0.84086276  0.67512371  0.40978801    -0.39900
O1167       O  0.82993078  0.73219310  0.58196759    -0.39900
O1168       O  0.87742792  0.69902059  0.57293851    -0.37600
O1169       O  0.86011833  0.89582013  0.44803330    -0.38500
O1170       O  0.84219211  0.89246230  0.50505140    -0.34700
O1171       O  0.94912896  0.72514342  0.47056105    -0.36100
O1172       O  0.94043749  0.72299174  0.52763967    -0.40400
C1173       C  0.12912997  0.19336931  0.51276760    -0.14100
C1174       C  0.11385515  0.23026523  0.50663252     0.16300
C1175       C  0.07927873  0.23172676  0.50183084     0.02600
C1176       C  0.06056438  0.19656164  0.50347204    -0.12600
C1177       C  0.07567002  0.15950066  0.50957100    -0.03700
C1178       C  0.11047589  0.15803575  0.51413083     0.01800
C1179       C  0.13513362  0.26685029  0.50285243     0.08700
N1180       N  0.06261123  0.26864928  0.49548555     0.65000
H1181       H  0.03389450  0.19836066  0.49998503     0.17900
N1182       N  0.12810659  0.12139113  0.51774947     0.75500
H1183       H  0.15607991  0.19202554  0.51535218     0.09400
C1184       C  0.15009631  0.27609446  0.53060993     0.03100
C1185       C  0.17012171  0.31090445  0.52585567    -0.05600
C1186       C  0.17582758  0.33722360  0.49374475    -0.24000
C1187       C  0.16167687  0.32719959  0.46557141     0.12400
C1188       C  0.14164965  0.29213710  0.47034615    -0.13100
N1189       N  0.14414821  0.25140067  0.56432112     0.64100
H1190       H  0.18034373  0.31786471  0.54812015     0.11900
N1191       N  0.16877580  0.35081729  0.43144873     0.60700
H1192       H  0.13142996  0.28435719  0.44835672     0.08100
O1193       O  0.13264769  0.10641582  0.54798297    -0.40800
O1194       O  0.14716481  0.11088959  0.49058809    -0.39900
O1195       O  0.05926984  0.28168637  0.46438773    -0.39900
O1196       O  0.04333298  0.28166232  0.52121908    -0.37600
O1197       O  0.14488017  0.37154154  0.42156226    -0.38500
O1198       O  0.19363405  0.34130058  0.40835725    -0.34700
O1199       O  0.16823792  0.22964506  0.57238331    -0.36100
O1200       O  0.12006743  0.25986894  0.58873276    -0.40400
loop_ 
_geom_bond_atom_site_label_1 
_geom_bond_atom_site_label_2 
_geom_bond_distance 
_geom_bond_site_symmetry_2 
_ccdc_geom_bond_type 
Zr1           O2   2.440   1_565  S
Zr1           O3   2.427       .  S
Zr1           O4   2.453       .  S
Zr1           O7   2.432       .  S
Zr1           O9   2.384   1_655  S
Zr1          O10   2.381       .  S
Zr1          O11   2.402   1_565  S
Zr1          O12   2.405   1_565  S
O2           H58   0.991   1_545  S
O2           H66   0.990       .  S
O3           C23   1.282       .  A
O4           C25   1.287   1_655  A
O5          Zr15   2.430       .  S
O5           C24   1.283   1_545  A
O6          Zr14   2.427       .  S
O6           C25   1.283       .  A
O7           C24   1.287       .  A
O8          Zr16   2.411       .  S
O8           C23   1.282       .  A
O9          Zr14   2.401       .  S
O9          Zr16   2.378   1_455  S
O10         Zr15   2.385   1_565  S
O10         Zr16   2.371       .  S
O10          H45   0.964       .  S
O11         Zr14   2.402   1_645  S
O11         Zr31   2.388       .  S
O11          H48   0.965       .  S
O12         Zr15   2.392       .  S
O12         Zr31   2.393       .  S
Zr13         O38   2.438       .  S
Zr13         O32   2.423       .  S
Zr13         O40   2.444       .  S
Zr13         O28   2.452       .  S
Zr13         O19   2.397   1_445  S
Zr13         O20   2.399   1_545  S
Zr13         O21   2.376       .  S
Zr13         O22   2.388   1_455  S
Zr14         O33   2.435   1_565  S
Zr14         O26   2.434       .  S
Zr14         O27   2.433   1_565  S
Zr14         O20   2.402       .  S
Zr14         O21   2.383   1_565  S
Zr15         O17   2.435       .  S
Zr15         O39   2.438   1_545  S
Zr15         O41   2.421       .  S
Zr15         O19   2.396   1_545  S
Zr15         O22   2.393       .  S
Zr16         O42   2.435       .  S
Zr16         O43   2.437   1_655  S
Zr16         O18   2.437   1_655  S
Zr16         O19   2.393       .  S
Zr16         O20   2.385   1_655  S
O17          H54   0.990       .  S
O18          H49   0.990       .  S
O18          H63   0.990       .  S
O20          H46   0.961       .  S
O21         Zr31   2.375   1_455  S
O22         Zr31   2.375       .  S
O22          H47   0.961       .  S
C23        C1158   1.474       .  S
C24        C1093   1.489       .  S
C25        C1065   1.474       .  S
O26          H62   0.990       .  S
O27          C29   1.284       .  A
O28          C29   1.290       .  A
C29        C1121   1.498       .  S
O30         Zr31   2.438       .  S
O30          H59   0.990       .  S
Zr31         O34   2.435   1_655  S
Zr31         O35   2.438       .  S
Zr31         O36   2.418   1_655  S
O32          C37   1.282       .  A
O33          H50   0.990       .  S
O33          H65   0.990       .  S
O34          H51   0.990       .  S
O35          H55   0.990       .  S
O35          H64   0.990       .  S
O36          C37   1.283       .  A
C37        C1177   1.475       .  S
O38          H57   0.990   1_545  S
O38          H61   0.990       .  S
O39          H53   0.990       .  S
O39          H60   0.990       .  S
O40          C44   1.289   1_455  A
O41          C44   1.282       .  A
O42          H52   0.990       .  S
O43          H56   0.990       .  S
C44        C1037   1.495       .  S
Zr67         O68   2.434       .  S
Zr67         O69   2.446       .  S
Zr67         O70   2.446       .  S
Zr67         O73   2.434       .  S
Zr67         O75   2.378   1_545  S
Zr67         O76   2.381       .  S
Zr67         O77   2.401       .  S
Zr67         O78   2.411       .  S
O68         H124   0.989       .  S
O68         H132   0.989       .  S
O69          C89   1.286   1_545  A
O70          C91   1.289   1_545  A
O71         Zr81   2.442       .  S
O71          C90   1.288       .  A
O72         Zr80   2.417       .  S
O72          C91   1.280       .  A
O73          C90   1.284       .  A
O74         Zr82   2.420       .  S
O74          C89   1.283       .  A
O75         Zr80   2.397       .  S
O75         Zr82   2.378       .  S
O76         Zr81   2.382       .  S
O76         Zr82   2.375   1_545  S
O76         H111   0.964       .  S
O77         Zr80   2.398   1_545  S
O77         Zr97   2.397       .  S
O77         H114   0.964       .  S
O78         Zr81   2.397       .  S
O78         Zr97   2.402       .  S
Zr79        O104   2.440       .  S
Zr79         O98   2.445       .  S
Zr79        O106   2.442       .  S
Zr79         O94   2.445       .  S
Zr79         O85   2.400       .  S
Zr79         O86   2.406       .  S
Zr79         O87   2.375       .  S
Zr79         O88   2.382   1_565  S
Zr80         O99   2.435       .  S
Zr80         O92   2.435       .  S
Zr80         O93   2.419       .  S
Zr80         O86   2.397       .  S
Zr80         O87   2.396       .  S
Zr81         O83   2.434       .  S
Zr81        O105   2.439       .  S
Zr81        O107   2.431       .  S
Zr81         O85   2.395   1_545  S
Zr81         O88   2.396       .  S
Zr82        O108   2.435       .  S
Zr82        O109   2.436       .  S
Zr82         O84   2.438       .  S
Zr82         O85   2.394       .  S
Zr82         O86   2.390       .  S
O83         H120   0.990       .  S
O84         H115   0.990       .  S
O84         H129   0.990       .  S
O86         H112   0.965       .  S
O87         Zr97   2.379   1_565  S
O88         Zr97   2.375       .  S
O88         H113   0.965       .  S
C89        C1102   1.482       .  S
C90        C1009   1.496       .  S
C91         C934   1.493       .  S
O92         H128   0.990       .  S
O93          C95   1.281       .  A
O94          C95   1.287       .  A
C95         C981   1.482       .  S
O96         Zr97   2.434       .  S
O96         H125   0.990       .  S
Zr97        O100   2.435       .  S
Zr97        O101   2.438       .  S
Zr97        O102   2.429       .  S
O98         C103   1.287   1_565  A
O99         H116   0.990       .  S
O99         H131   0.990       .  S
O100        H117   0.990       .  S
O101        H121   0.990       .  S
O101        H130   0.990       .  S
O102        C103   1.282       .  A
C103       C1130   1.485       .  S
O104        H123   0.990       .  S
O104        H127   0.990       .  S
O105        H119   0.990       .  S
O105        H126   0.990       .  S
O106        C110   1.289   1_565  A
O107        C110   1.284       .  A
O108        H118   0.990       .  S
O109        H122   0.990       .  S
C110        C953   1.498       .  S
Zr133       O134   2.438       .  S
Zr133       O135   2.445       .  S
Zr133       O136   2.458       .  S
Zr133       O139   2.431       .  S
Zr133       O141   2.384       .  S
Zr133       O142   2.388       .  S
Zr133       O143   2.406       .  S
Zr133       O144   2.402       .  S
O134        H190   0.989       .  S
O134        H198   0.990       .  S
O135        C155   1.285       .  A
O136        C157   1.287       .  A
O137       Zr147   2.441       .  S
O137        C156   1.285       .  A
O138       Zr146   2.462       .  S
O138        C157   1.292       .  A
O139        C156   1.286       .  A
O140       Zr148   2.402       .  S
O140        C155   1.280       .  A
O141       Zr146   2.401       .  S
O141       Zr148   2.380       .  S
O142       Zr147   2.399       .  S
O142       Zr148   2.379       .  S
O142        H177   0.959       .  S
O143       Zr146   2.401       .  S
O143       Zr163   2.393       .  S
O143        H180   0.964       .  S
O144       Zr147   2.390       .  S
O144       Zr163   2.385       .  S
Zr145       O170   2.428       .  S
Zr145       O164   2.433       .  S
Zr145       O172   2.441       .  S
Zr145       O160   2.438       .  S
Zr145       O151   2.398       .  S
Zr145       O152   2.405       .  S
Zr145       O153   2.387       .  S
Zr145       O154   2.384       .  S
Zr146       O165   2.435       .  S
Zr146       O158   2.435       .  S
Zr146       O159   2.468       .  S
Zr146       O152   2.399       .  S
Zr146       O153   2.395       .  S
Zr147       O149   2.435       .  S
Zr147       O171   2.438       .  S
Zr147       O173   2.440       .  S
Zr147       O151   2.394       .  S
Zr147       O154   2.388       .  S
Zr148       O174   2.437       .  S
Zr148       O175   2.435       .  S
Zr148       O150   2.437       .  S
Zr148       O151   2.391       .  S
Zr148       O152   2.381       .  S
O149        H186   0.990       .  S
O150        H181   0.990       .  S
O150        H195   0.990       .  S
O152        H178   0.961       .  S
O153       Zr163   2.378       .  S
O154       Zr163   2.380       .  S
O154        H179   0.959       .  S
C155       C1186   1.481       .  S
C156        C906   1.496       .  S
C157        C841   1.508       .  S
O158        H194   0.990       .  S
O159        C161   1.294       .  A
O160        C161   1.285       .  A
C161        C878   1.504       .  S
O162       Zr163   2.434       .  S
O162        H191   0.990       .  S
Zr163       O166   2.437       .  S
Zr163       O167   2.438       .  S
Zr163       O168   2.412       .  S
O164        C169   1.282       .  A
O165        H182   0.990       .  S
O165        H197   0.990       .  S
O166        H183   0.990       .  S
O167        H187   0.990       .  S
O167        H196   0.990       .  S
O168        C169   1.280       .  A
C169        C990   1.464       .  S
O170        H189   0.989       .  S
O170        H193   0.990       .  S
O171        H185   0.990       .  S
O171        H192   0.990       .  S
O172        C176   1.283       .  A
O173        C176   1.288       .  A
O174        H184   0.990       .  S
O175        H188   0.990       .  S
C176        C813   1.498       .  S
Zr199       O200   2.440       .  S
Zr199       O201   2.431       .  S
Zr199       O202   2.453       .  S
Zr199       O205   2.443       .  S
Zr199       O207   2.381       .  S
Zr199       O208   2.383       .  S
Zr199       O209   2.404       .  S
Zr199       O210   2.403       .  S
O200        H256   0.990       .  S
O200        H264   0.990       .  S
O201        C221   1.285       .  A
O202        C223   1.289       .  A
O203       Zr213   2.443       .  S
O203        C222   1.289       .  A
O204       Zr212   2.422       .  S
O204        C223   1.281       .  A
O205        C222   1.286       .  A
O206       Zr214   2.429       .  S
O206        C221   1.282       .  A
O207       Zr212   2.404       .  S
O207       Zr214   2.382       .  S
O208       Zr213   2.396       .  S
O208       Zr214   2.378       .  S
O208        H243   0.958       .  S
O209       Zr212   2.406       .  S
O209       Zr229   2.387       .  S
O209        H246   0.966       .  S
O210       Zr213   2.398       .  S
O210       Zr229   2.392       .  S
Zr211       O236   2.442       .  S
Zr211       O230   2.436       .  S
Zr211       O238   2.435       .  S
Zr211       O226   2.430       .  S
Zr211       O217   2.396       .  S
Zr211       O218   2.410       .  S
Zr211       O219   2.371       .  S
Zr211       O220   2.381       .  S
Zr212       O231   2.435       .  S
Zr212       O224   2.434       .  S
Zr212       O225   2.440       .  S
Zr212       O218   2.402       .  S
Zr212       O219   2.386       .  S
Zr213       O215   2.435       .  S
Zr213       O237   2.436       .  S
Zr213       O239   2.458       .  S
Zr213       O217   2.389       .  S
Zr213       O220   2.403       .  S
Zr214       O240   2.437       .  S
Zr214       O241   2.437       .  S
Zr214       O216   2.437       .  S
Zr214       O217   2.397       .  S
Zr214       O218   2.397       .  S
O215        H252   0.990       .  S
O216        H247   0.990       .  S
O216        H261   0.990       .  S
O218        H244   0.963       .  S
O219       Zr229   2.376       .  S
O220       Zr229   2.386       .  S
O220        H245   0.973       .  S
C221       C1018   1.492       .  S
C222        C869   1.489       .  S
C223        C785   1.493       .  S
O224        H260   0.989       .  S
O225        C227   1.284       .  A
O226        C227   1.283       .  A
C227        C897   1.477       .  S
O228       Zr229   2.435       .  S
O228        H257   0.990       .  S
Zr229       O232   2.436       .  S
Zr229       O233   2.437       .  S
Zr229       O234   2.410       .  S
O230        C235   1.285       .  A
O231        H248   0.990       .  S
O231        H263   0.990       .  S
O232        H249   0.990       .  S
O233        H253   0.990       .  S
O233        H262   0.990       .  S
O234        C235   1.278       .  A
C235       C1149   1.480       .  S
O236        H255   0.990       .  S
O236        H259   0.990       .  S
O237        H251   0.990       .  S
O237        H258   0.990       .  S
O238        C242   1.287       .  A
O239        C242   1.288       .  A
O240        H250   0.990       .  S
O241        H254   0.990       .  S
C242        C757   1.506       .  S
Zr265       O266   2.442       .  S
Zr265       O267   2.420       .  S
Zr265       O268   2.431       .  S
Zr265       O271   2.417       .  S
Zr265       O273   2.376   1_545  S
Zr265       O274   2.382   1_556  S
Zr265       O275   2.397   1_655  S
Zr265       O276   2.394   1_655  S
O266        H322   0.990       .  S
O266        H330   0.990       .  S
O267        C287   1.283   1_545  A
O268        C289   1.284   1_545  A
O269       Zr279   2.451       .  S
O269        C288   1.287       .  A
O270       Zr278   2.443       .  S
O270        C289   1.285   1_455  A
O271        C288   1.283   1_556  A
O272       Zr280   2.414       .  S
O272        C287   1.280   1_554  A
O273       Zr278   2.395   1_655  S
O273       Zr280   2.380   1_556  S
O274       Zr279   2.396       .  S
O274       Zr280   2.381   1_545  S
O274        H309   0.962       .  S
O275       Zr278   2.406   1_545  S
O275       Zr295   2.391       .  S
O275        H312   0.963       .  S
O276       Zr279   2.391   1_456  S
O276       Zr295   2.383       .  S
Zr277       O302   2.440       .  S
Zr277       O296   2.423       .  S
Zr277       O304   2.423       .  S
Zr277       O292   2.433       .  S
Zr277       O283   2.395   1_455  S
Zr277       O284   2.401       .  S
Zr277       O285   2.377   1_554  S
Zr277       O286   2.385   1_565  S
Zr278       O297   2.436       .  S
Zr278       O290   2.434   1_455  S
Zr278       O291   2.445       .  S
Zr278       O284   2.398   1_556  S
Zr278       O285   2.399       .  S
Zr279       O281   2.435   1_655  S
Zr279       O303   2.439       .  S
Zr279       O305   2.444       .  S
Zr279       O283   2.391   1_545  S
Zr279       O286   2.390   1_655  S
Zr280       O306   2.434       .  S
Zr280       O307   2.435       .  S
Zr280       O282   2.437       .  S
Zr280       O283   2.387       .  S
Zr280       O284   2.392   1_655  S
O281        H318   0.990       .  S
O282        H313   0.990   1_554  S
O282        H327   0.990       .  S
O284        H310   0.964       .  S
O285       Zr295   2.386   1_565  S
O286       Zr295   2.382   1_554  S
O286        H311   0.962       .  S
C287        C654   1.473   1_565  S
C288        C701   1.491   1_554  S
C289       C1046   1.484   1_565  S
O290        H326   0.990   1_655  S
O291        C293   1.286       .  A
O292        C293   1.285   1_554  A
C293        C729   1.492       .  S
O294       Zr295   2.435       .  S
O294        H323   0.990       .  S
Zr295       O298   2.434       .  S
Zr295       O299   2.439       .  S
Zr295       O300   2.401       .  S
O296        C301   1.284   1_565  A
O297        H314   0.990       .  S
O297        H329   0.990       .  S
O298        H315   0.990       .  S
O299        H319   0.990   1_556  S
O299        H328   0.990       .  S
O300        C301   1.277   1_556  A
C301        C673   1.471       .  S
O302        H321   0.990       .  S
O302        H325   0.990       .  S
O303        H317   0.990       .  S
O303        H324   0.990       .  S
O304        C308   1.282       .  A
O305        C308   1.289   1_645  A
O306        H316   0.990       .  S
O307        H320   0.990       .  S
C308       C1074   1.486       .  S
Zr331       O332   2.441       .  S
Zr331       O333   2.427       .  S
Zr331       O334   2.449   1_545  S
Zr331       O337   2.438       .  S
Zr331       O339   2.379   1_545  S
Zr331       O340   2.381   1_556  S
Zr331       O341   2.403       .  S
Zr331       O342   2.404       .  S
O332        H388   0.990       .  S
O332        H396   0.990       .  S
O333        C353   1.284   1_545  A
O334        C355   1.289       .  A
O335       Zr345   2.451       .  S
O335        C354   1.289   1_554  A
O336       Zr344   2.413       .  S
O336        C355   1.279       .  A
O337        C354   1.285       .  A
O338       Zr346   2.406       .  S
O338        C353   1.278   1_554  A
O339       Zr344   2.394       .  S
O339       Zr346   2.381   1_556  S
O340       Zr345   2.381       .  S
O340       Zr346   2.379   1_545  S
O340        H375   0.963       .  S
O341       Zr344   2.395   1_545  S
O341       Zr361   2.395       .  S
O341        H378   0.963       .  S
O342       Zr345   2.388   1_556  S
O342       Zr361   2.388       .  S
Zr343       O368   2.436       .  S
Zr343       O362   2.418       .  S
Zr343       O370   2.443       .  S
Zr343       O358   2.458       .  S
Zr343       O349   2.399       .  S
Zr343       O350   2.402       .  S
Zr343       O351   2.378   1_554  S
Zr343       O352   2.395   1_565  S
Zr344       O363   2.437       .  S
Zr344       O356   2.434       .  S
Zr344       O357   2.408       .  S
Zr344       O350   2.399   1_556  S
Zr344       O351   2.388       .  S
Zr345       O347   2.436       .  S
Zr345       O369   2.439       .  S
Zr345       O371   2.430       .  S
Zr345       O349   2.396   1_545  S
Zr345       O352   2.397       .  S
Zr346       O372   2.435       .  S
Zr346       O373   2.434       .  S
Zr346       O348   2.437       .  S
Zr346       O349   2.388       .  S
Zr346       O350   2.394       .  S
O347        H384   0.990       .  S
O348        H379   0.990       .  S
O348        H393   0.990       .  S
O350        H376   0.962       .  S
O351       Zr361   2.373   1_565  S
O352       Zr361   2.376   1_554  S
O352        H377   0.966       .  S
C353        C682   1.477   1_556  S
C354        C589   1.486       .  S
C355        C925   1.491       .  S
O356        H392   0.990       .  S
O357        C359   1.279       .  A
O358        C359   1.289   1_554  A
C359        C617   1.480   1_556  S
O360       Zr361   2.434       .  S
O360        H389   0.990       .  S
Zr361       O364   2.435       .  S
Zr361       O365   2.437       .  S
Zr361       O366   2.415       .  S
O362        C367   1.280   1_565  A
O363        H380   0.989       .  S
O363        H395   0.990       .  S
O364        H381   0.990       .  S
O365        H385   0.990       .  S
O365        H394   0.990       .  S
O366        C367   1.282   1_556  A
C367        C645   1.483       .  S
O368        H387   0.990       .  S
O368        H391   0.990       .  S
O369        H383   0.990       .  S
O369        H390   0.990       .  S
O370        C374   1.286   1_565  A
O371        C374   1.286       .  A
O372        H382   0.990       .  S
O373        H386   0.990       .  S
C374        C962   1.496       .  S
Zr397       O398   2.432       .  S
Zr397       O399   2.431       .  S
Zr397       O400   2.443       .  S
Zr397       O403   2.436       .  S
Zr397       O405   2.382       .  S
Zr397       O406   2.385   1_556  S
Zr397       O407   2.405       .  S
Zr397       O408   2.399       .  S
O398        H454   0.989       .  S
O398        H462   0.990       .  S
O399        C419   1.282   1_556  A
O400        C421   1.283       .  A
O401       Zr411   2.430       .  S
O401        C420   1.284       .  A
O402       Zr410   2.447       .  S
O402        C421   1.289       .  A
O403        C420   1.284   1_556  A
O404       Zr412   2.403       .  S
O404        C419   1.279       .  A
O405       Zr410   2.389       .  S
O405       Zr412   2.381   1_556  S
O406       Zr411   2.395       .  S
O406       Zr412   2.385       .  S
O406        H441   0.964       .  S
O407       Zr410   2.400       .  S
O407       Zr427   2.398       .  S
O407        H444   0.966       .  S
O408       Zr411   2.388   1_556  S
O408       Zr427   2.392       .  S
Zr409       O434   2.439       .  S
Zr409       O428   2.442       .  S
Zr409       O436   2.475       .  S
Zr409       O424   2.466       .  S
Zr409       O415   2.398       .  S
Zr409       O416   2.413       .  S
Zr409       O417   2.385   1_554  S
Zr409       O418   2.387       .  S
Zr410       O429   2.437       .  S
Zr410       O422   2.435       .  S
Zr410       O423   2.431       .  S
Zr410       O416   2.405   1_556  S
Zr410       O417   2.393       .  S
Zr411       O413   2.434       .  S
Zr411       O435   2.439       .  S
Zr411       O437   2.419       .  S
Zr411       O415   2.393       .  S
Zr411       O418   2.401       .  S
Zr412       O438   2.436       .  S
Zr412       O439   2.437       .  S
Zr412       O414   2.438       .  S
Zr412       O415   2.387       .  S
Zr412       O416   2.381       .  S
O413        H450   0.990       .  S
O414        H445   0.990       .  S
O414        H459   0.990       .  S
O416        H442   0.965       .  S
O417       Zr427   2.374       .  S
O418       Zr427   2.387   1_554  S
O418        H443   0.971       .  S
C419        C570   1.473       .  S
C420        C738   1.479       .  S
C421        C822   1.500       .  S
O422        H458   0.990       .  S
O423        C425   1.286       .  A
O424        C425   1.290   1_554  A
C425        C598   1.491       .  S
O426       Zr427   2.436       .  S
O426        H455   0.990       .  S
Zr427       O430   2.439       .  S
Zr427       O431   2.438       .  S
Zr427       O432   2.412       .  S
O428        C433   1.286   1_554  A
O429        H446   0.990       .  S
O429        H461   0.990       .  S
O430        H447   0.989       .  S
O431        H451   0.990   1_556  S
O431        H460   0.990       .  S
O432        C433   1.279       .  A
C433        C533   1.481       .  S
O434        H453   0.990       .  S
O434        H457   0.990       .  S
O435        H449   0.990       .  S
O435        H456   0.990       .  S
O436        C440   1.294       .  A
O437        C440   1.281       .  A
O438        H448   0.990       .  S
O439        H452   0.990       .  S
C440        C850   1.498       .  S
Zr463       O464   2.439       .  S
Zr463       O465   2.429       .  S
Zr463       O466   2.453       .  S
Zr463       O469   2.426       .  S
Zr463       O471   2.381       .  S
Zr463       O472   2.386   1_556  S
Zr463       O473   2.401       .  S
Zr463       O474   2.399       .  S
O464        H520   0.990       .  S
O464        H528   0.990       .  S
O465        C485   1.282       .  A
O466        C487   1.289       .  A
O467       Zr477   2.439       .  S
O467        C486   1.285       .  A
O468       Zr476   2.433       .  S
O468        C487   1.284       .  A
O469        C486   1.286   1_556  A
O470       Zr478   2.411   1_556  S
O470        C485   1.282       .  A
O471       Zr476   2.399       .  S
O471       Zr478   2.373   1_556  S
O472       Zr477   2.390       .  S
O472       Zr478   2.376       .  S
O472        H507   0.964       .  S
O473       Zr476   2.401       .  S
O473       Zr493   2.397       .  S
O473        H510   0.962       .  S
O474       Zr477   2.395   1_556  S
O474       Zr493   2.383       .  S
Zr475       O500   2.442       .  S
Zr475       O494   2.411       .  S
Zr475       O502   2.436       .  S
Zr475       O490   2.422       .  S
Zr475       O481   2.394       .  S
Zr475       O482   2.399       .  S
Zr475       O483   2.379   1_554  S
Zr475       O484   2.388       .  S
Zr476       O495   2.436       .  S
Zr476       O488   2.433       .  S
Zr476       O489   2.445       .  S
Zr476       O482   2.401   1_556  S
Zr476       O483   2.381       .  S
Zr477       O479   2.435       .  S
Zr477       O501   2.438       .  S
Zr477       O503   2.442       .  S
Zr477       O481   2.388       .  S
Zr477       O484   2.390       .  S
Zr478       O504   2.435       .  S
Zr478       O505   2.436       .  S
Zr478       O480   2.436   1_554  S
Zr478       O481   2.395       .  S
Zr478       O482   2.386       .  S
O479        H516   0.990       .  S
O480        H511   0.990   1_556  S
O480        H525   0.990       .  S
O482        H508   0.961       .  S
O483       Zr493   2.374       .  S
O484       Zr493   2.380   1_554  S
O484        H509   0.964       .  S
C485        C542   1.475       .  S
C486        C626   1.490       .  S
C487        C766   1.491       .  S
O488        H524   0.990       .  S
O489        C491   1.286       .  A
O490        C491   1.284   1_554  A
C491        C710   1.482       .  S
O492       Zr493   2.435       .  S
O492        H521   0.990       .  S
Zr493       O496   2.435       .  S
Zr493       O497   2.439   1_556  S
Zr493       O498   2.421       .  S
O494        C499   1.280       .  A
O495        H512   0.990       .  S
O495        H527   0.990       .  S
O496        H513   0.990       .  S
O497        H517   0.990       .  S
O497        H526   0.990       .  S
O498        C499   1.283   1_556  A
C499        C561   1.468       .  S
O500        H519   0.989       .  S
O500        H523   0.989       .  S
O501        H515   0.990       .  S
O501        H522   0.990       .  S
O502        C506   1.284       .  A
O503        C506   1.287       .  A
O504        H514   0.990       .  S
O505        H518   0.990       .  S
C506        C794   1.486       .  S
C529        C530   1.396       .  A
C529        C534   1.397       .  A
C529        H539   1.084       .  S
C530        C535   1.470       .  S
C530        C531   1.408   1_556  A
C531        C532   1.399       .  A
C531        N536   1.428       .  S
C532        C533   1.404   1_554  A
C532        H537   1.084       .  S
C533        C534   1.417       .  A
C534        N538   1.428       .  S
C535        C540   1.406       .  A
C535        C544   1.400       .  A
N536        O551   1.262       .  A
N536        O552   1.262       .  A
N538        O549   1.262       .  A
N538        O550   1.262       .  A
C540        C541   1.394       .  A
C540        N545   1.428       .  S
C541        C542   1.404       .  A
C541        H546   1.084       .  S
C542        C543   1.414       .  A
C543        C544   1.400       .  A
C543        N547   1.429       .  S
C544        H548   1.084       .  S
N545        O555   1.262       .  A
N545        O556   1.262   1_556  A
N547        O553   1.262       .  A
N547        O554   1.262   1_556  A
C557        C558   1.397       .  A
C557        C562   1.396       .  A
C557        H567   1.084       .  S
C558        C563   1.464   1_655  S
C558        C559   1.406       .  A
C559        C560   1.394       .  A
C559        N564   1.428       .  S
C560        C561   1.401       .  A
C560        H565   1.084       .  S
C561        C562   1.414       .  A
C562        N566   1.429       .  S
C563        C568   1.404       .  A
C563        C572   1.396   1_554  A
N564        O579   1.262   1_554  A
N564        O580   1.262       .  A
N566        O577   1.262       .  A
N566        O578   1.262   1_554  A
C568        C569   1.394       .  A
C568        N573   1.427       .  S
C569        C570   1.404       .  A
C569        H574   1.084       .  S
C570        C571   1.411   1_554  A
C571        C572   1.395       .  A
C571        N575   1.423       .  S
C572        H576   1.085       .  S
N573        O583   1.262       .  A
N573        O584   1.262       .  A
N575        O581   1.262       .  A
N575        O582   1.261       .  A
C585        C586   1.403       .  A
C585        C590   1.406       .  A
C585        H595   1.084       .  S
C586        C591   1.485       .  S
C586        C587   1.409       .  A
C587        C588   1.401       .  A
C587        N592   1.427       .  S
C588        C589   1.403       .  A
C588        H593   1.084       .  S
C589        C590   1.415       .  A
C590        N594   1.429       .  S
C591        C596   1.408       .  A
C591        C600   1.401   1_556  A
N592        O607   1.261   1_556  A
N592        O608   1.262       .  A
N594        O605   1.262       .  A
N594        O606   1.262   1_556  A
C596        C597   1.403       .  A
C596        N601   1.428       .  S
C597        C598   1.408       .  A
C597        H602   1.084       .  S
C598        C599   1.415   1_556  A
C599        C600   1.404       .  A
C599        N603   1.428       .  S
C600        H604   1.084       .  S
N601        O611   1.262       .  A
N601        O612   1.262       .  A
N603        O609   1.262       .  A
N603        O610   1.261       .  A
C613        C614   1.401   1_556  A
C613        C618   1.399       .  A
C613        H623   1.083       .  S
C614        C619   1.486       .  S
C614        C615   1.413       .  A
C615        C616   1.401       .  A
C615        N620   1.428       .  S
C616        C617   1.402       .  A
C616        H621   1.084       .  S
C617        C618   1.415   1_554  A
C618        N622   1.429       .  S
C619        C624   1.411   1_554  A
C619        C628   1.403       .  A
N620        O635   1.262       .  A
N620        O636   1.262       .  A
N622        O633   1.262       .  A
N622        O634   1.262       .  A
C624        C625   1.394       .  A
C624        N629   1.429       .  S
C625        C626   1.406   1_556  A
C625        H630   1.084       .  S
C626        C627   1.417       .  A
C627        C628   1.403       .  A
C627        N631   1.428       .  S
C628        H632   1.083       .  S
N629        O639   1.262       .  A
N629        O640   1.262       .  A
N631        O637   1.262       .  A
N631        O638   1.262       .  A
C641        C642   1.403   1_554  A
C641        C646   1.397       .  A
C641        H651   1.084   1_545  S
C642        C647   1.479       .  S
C642        C643   1.408       .  A
C643        C644   1.394       .  A
C643        N648   1.428       .  S
C644        C645   1.406   1_556  A
C644        H649   1.084       .  S
C645        C646   1.415       .  A
C646        N650   1.428   1_545  S
C647        C652   1.410       .  A
C647        C656   1.404   1_545  A
N648        O663   1.262       .  A
N648        O664   1.262       .  A
N650        O661   1.261   1_565  A
N650        O662   1.262       .  A
C652        C653   1.394       .  A
C652        N657   1.428       .  S
C653        C654   1.403       .  A
C653        H658   1.084       .  S
C654        C655   1.411   1_545  A
C655        C656   1.397       .  A
C655        N659   1.429   1_556  S
C656        H660   1.084   1_556  S
N657        O667   1.262   1_556  A
N657        O668   1.262       .  A
N659        O665   1.262       .  A
N659        O666   1.262   1_554  A
C669        C670   1.399   1_546  A
C669        C674   1.395   1_556  A
C669        H679   1.084       .  S
C670        C675   1.471       .  S
C670        C671   1.409       .  A
C671        C672   1.392       .  A
C671        N676   1.429       .  S
C672        C673   1.402   1_565  A
C672        H677   1.084       .  S
C673        C674   1.414       .  A
C674        N678   1.429   1_554  S
C675        C680   1.410   1_554  A
C675        C684   1.397       .  A
N676        O691   1.262       .  A
N676        O692   1.262   1_554  A
N678        O689   1.262       .  A
N678        O690   1.262   1_556  A
C680        C681   1.395       .  A
C680        N685   1.429   1_565  S
C681        C682   1.404   1_556  A
C681        H686   1.084   1_565  S
C682        C683   1.417       .  A
C683        C684   1.393       .  A
C683        N687   1.429       .  S
C684        H688   1.084       .  S
N685        O695   1.262       .  A
N685        O696   1.262   1_545  A
N687        O693   1.262       .  A
N687        O694   1.262       .  A
C697        C698   1.403   1_554  A
C697        C702   1.403       .  A
C697        H707   1.084       .  S
C698        C703   1.482       .  S
C698        C699   1.407       .  A
C699        C700   1.397       .  A
C699        N704   1.428       .  S
C700        C701   1.409       .  A
C700        H705   1.084       .  S
C701        C702   1.416   1_556  A
C702        N706   1.428       .  S
C703        C708   1.407   1_556  A
C703        C712   1.405       .  A
N704        O719   1.262       .  A
N704        O720   1.262       .  A
N706        O717   1.262       .  A
N706        O718   1.262       .  A
C708        C709   1.393       .  A
C708        N713   1.429       .  S
C709        C710   1.404   1_554  A
C709        H714   1.083       .  S
C710        C711   1.413       .  A
C711        C712   1.406       .  A
C711        N715   1.428       .  S
C712        H716   1.084       .  S
N713        O723   1.262       .  A
N713        O724   1.262       .  A
N715        O721   1.262       .  A
N715        O722   1.262       .  A
C725        C726   1.402   1_556  A
C725        C730   1.402       .  A
C725        H735   1.084       .  S
C726        C731   1.483       .  S
C726        C727   1.408       .  A
C727        C728   1.400       .  A
C727        N732   1.429       .  S
C728        C729   1.409   1_554  A
C728        H733   1.084       .  S
C729        C730   1.416       .  A
C730        N734   1.428       .  S
C731        C736   1.412       .  A
C731        C740   1.401   1_554  A
N732        O747   1.262       .  A
N732        O748   1.262       .  A
N734        O745   1.262       .  A
N734        O746   1.262       .  A
C736        C737   1.402       .  A
C736        N741   1.428       .  S
C737        C738   1.403       .  A
C737        H742   1.084       .  S
C738        C739   1.412   1_554  A
C739        C740   1.400       .  A
C739        N743   1.428       .  S
C740        H744   1.084       .  S
N741        O751   1.262       .  A
N741        O752   1.261       .  A
N743        O749   1.262       .  A
N743        O750   1.262       .  A
C753        C754   1.404       .  A
C753        C758   1.409       .  A
C753        H763   1.084       .  S
C754        C759   1.492       .  S
C754        C755   1.409       .  A
C755        C756   1.401       .  A
C755        N760   1.428       .  S
C756        C757   1.411       .  A
C756        H761   1.083       .  S
C757        C758   1.420       .  A
C758        N762   1.428       .  S
C759        C764   1.412       .  A
C759        C768   1.403       .  A
N760        O775   1.262       .  A
N760        O776   1.261       .  A
N762        O773   1.262       .  A
N762        O774   1.262       .  A
C764        C765   1.404       .  A
C764        N769   1.428       .  S
C765        C766   1.405       .  A
C765        H770   1.084       .  S
C766        C767   1.416       .  A
C767        C768   1.404       .  A
C767        N771   1.429       .  S
C768        H772   1.084       .  S
N769        O779   1.262       .  A
N769        O780   1.261       .  A
N771        O777   1.262       .  A
N771        O778   1.262       .  A
C781        C782   1.398       .  A
C781        C786   1.401       .  A
C781        H791   1.084       .  S
C782        C787   1.480       .  S
C782        C783   1.408       .  A
C783        C784   1.398       .  A
C783        N788   1.428       .  S
C784        C785   1.407       .  A
C784        H789   1.083       .  S
C785        C786   1.422       .  A
C786        N790   1.429       .  S
C787        C792   1.409       .  A
C787        C796   1.399       .  A
N788        O803   1.262       .  A
N788        O804   1.262       .  A
N790        O801   1.262       .  A
N790        O802   1.262       .  A
C792        C793   1.399       .  A
C792        N797   1.428       .  S
C793        C794   1.404       .  A
C793        H798   1.084       .  S
C794        C795   1.417       .  A
C795        C796   1.402       .  A
C795        N799   1.427       .  S
C796        H800   1.084       .  S
N797        O807   1.262       .  A
N797        O808   1.262       .  A
N799        O805   1.262       .  A
N799        O806   1.262       .  A
C809        C810   1.397       .  A
C809        C814   1.400       .  A
C809        H819   1.084       .  S
C810        C815   1.482       .  S
C810        C811   1.407       .  A
C811        C812   1.401       .  A
C811        N816   1.427       .  S
C812        C813   1.410       .  A
C812        H817   1.083       .  S
C813        C814   1.421       .  A
C814        N818   1.427       .  S
C815        C820   1.407       .  A
C815        C824   1.395       .  A
N816        O831   1.262       .  A
N816        O832   1.262       .  A
N818        O829   1.262       .  A
N818        O830   1.261       .  A
C820        C821   1.398       .  A
C820        N825   1.427       .  S
C821        C822   1.407       .  A
C821        H826   1.083       .  S
C822        C823   1.424       .  A
C823        C824   1.403       .  A
C823        N827   1.424       .  S
C824        H828   1.084       .  S
N825        O835   1.262       .  A
N825        O836   1.262       .  A
N827        O833   1.261       .  A
N827        O834   1.260       .  A
C837        C838   1.400       .  A
C837        C842   1.408       .  A
C837        H847   1.084       .  S
C838        C843   1.496       .  S
C838        C839   1.411       .  A
C839        C840   1.405       .  A
C839        N844   1.427       .  S
C840        C841   1.409       .  A
C840        H845   1.083       .  S
C841        C842   1.423       .  A
C842        N846   1.426       .  S
C843        C848   1.413       .  A
C843        C852   1.402       .  A
N844        O859   1.262       .  A
N844        O860   1.262       .  A
N846        O857   1.262       .  A
N846        O858   1.261       .  A
C848        C849   1.405       .  A
C848        N853   1.427       .  S
C849        C850   1.405       .  A
C849        H854   1.084       .  S
C850        C851   1.421       .  A
C851        C852   1.406       .  A
C851        N855   1.429       .  S
C852        H856   1.084       .  S
N853        O863   1.262       .  A
N853        O864   1.262       .  A
N855        O861   1.262       .  A
N855        O862   1.262       .  A
C865        C866   1.404       .  A
C865        C870   1.405       .  A
C865        H875   1.083       .  S
C866        C871   1.494       .  S
C866        C867   1.415       .  A
C867        C868   1.401       .  A
C867        N872   1.429       .  S
C868        C869   1.403       .  A
C868        H873   1.084       .  S
C869        C870   1.415       .  A
C870        N874   1.428       .  S
C871        C876   1.414       .  A
C871        C880   1.397       .  A
N872        O887   1.262       .  A
N872        O888   1.262       .  A
N874        O885   1.262       .  A
N874        O886   1.262       .  A
C876        C877   1.406       .  A
C876        N881   1.428       .  S
C877        C878   1.408       .  A
C877        H882   1.083       .  S
C878        C879   1.423       .  A
C879        C880   1.401       .  A
C879        N883   1.426       .  S
C880        H884   1.084       .  S
N881        O891   1.262       .  A
N881        O892   1.262       .  A
N883        O889   1.262       .  A
N883        O890   1.262       .  A
C893        C894   1.405       .  A
C893        C898   1.402       .  A
C893        H903   1.082       .  S
C894        C899   1.489   1_655  S
C894        C895   1.414       .  A
C895        C896   1.396       .  A
C895        N900   1.429       .  S
C896        C897   1.402       .  A
C896        H901   1.085       .  S
C897        C898   1.410       .  A
C898        N902   1.428       .  S
C899        C904   1.411       .  A
C899        C908   1.403       .  A
N900        O915   1.262       .  A
N900        O916   1.262       .  A
N902        O913   1.262       .  A
N902        O914   1.262       .  A
C904        C905   1.396       .  A
C904        N909   1.430       .  S
C905        C906   1.409       .  A
C905        H910   1.083       .  S
C906        C907   1.418       .  A
C907        C908   1.403       .  A
C907        N911   1.428       .  S
C908        H912   1.083       .  S
N909        O919   1.262       .  A
N909        O920   1.262       .  A
N911        O917   1.262       .  A
N911        O918   1.262       .  A
C921        C922   1.398       .  A
C921        C926   1.400       .  A
C921        H931   1.084       .  S
C922        C927   1.476       .  S
C922        C923   1.406   1_565  A
C923        C924   1.397   1_545  A
C923        N928   1.428       .  S
C924        C925   1.407       .  A
C924        H929   1.083   1_565  S
C925        C926   1.421       .  A
C926        N930   1.429       .  S
C927        C932   1.407       .  A
C927        C936   1.398       .  A
N928        O943   1.262       .  A
N928        O944   1.261       .  A
N930        O941   1.262       .  A
N930        O942   1.262       .  A
C932        C933   1.397       .  A
C932        N937   1.428   1_565  S
C933        C934   1.407       .  A
C933        H938   1.083   1_565  S
C934        C935   1.422       .  A
C935        C936   1.401       .  A
C935        N939   1.429       .  S
C936        H940   1.084       .  S
N937        O947   1.262       .  A
N937        O948   1.261       .  A
N939        O945   1.262       .  A
N939        O946   1.262       .  A
C949        C950   1.398       .  A
C949        C954   1.402       .  A
C949        H959   1.084       .  S
C950        C955   1.478       .  S
C950        C951   1.406   1_545  A
C951        C952   1.399       .  A
C951        N956   1.428       .  S
C952        C953   1.409   1_565  A
C952        H957   1.083       .  S
C953        C954   1.422       .  A
C954        N958   1.428       .  S
C955        C960   1.404       .  A
C955        C964   1.399   1_545  A
N956        O971   1.262       .  A
N956        O972   1.262       .  A
N958        O969   1.262       .  A
N958        O970   1.262       .  A
C960        C961   1.397       .  A
C960        N965   1.428       .  S
C961        C962   1.410       .  A
C961        H966   1.083       .  S
C962        C963   1.420   1_545  A
C963        C964   1.404       .  A
C963        N967   1.427       .  S
C964        H968   1.084       .  S
N965        O975   1.262       .  A
N965        O976   1.261       .  A
N967        O973   1.261       .  A
N967        O974   1.261       .  A
C977        C978   1.399       .  A
C977        C982   1.397       .  A
C977        H987   1.084       .  S
C978        C983   1.476       .  S
C978        C979   1.409       .  A
C979        C980   1.398       .  A
C979        N984   1.429       .  S
C980        C981   1.405       .  A
C980        H985   1.084       .  S
C981        C982   1.417       .  A
C982        N986   1.429       .  S
C983        C988   1.410       .  A
C983        C992   1.403       .  A
N984        O999   1.262       .  A
N984       O1000   1.261       .  A
N986        O997   1.262       .  A
N986        O998   1.262       .  A
C988        C989   1.394       .  A
C988        N993   1.428       .  S
C989        C990   1.399       .  A
C989        H994   1.085       .  S
C990        C991   1.408       .  A
C991        C992   1.399       .  A
C991        N995   1.427       .  S
C992        H996   1.084       .  S
N993       O1003   1.262       .  A
N993       O1004   1.261       .  A
N995       O1001   1.261       .  A
N995       O1002   1.262       .  A
C1005      C1006   1.397       .  A
C1005      C1010   1.397       .  A
C1005      H1015   1.085       .  S
C1006      C1011   1.483       .  S
C1006      C1007   1.410       .  A
C1007      C1008   1.404       .  A
C1007      N1012   1.429       .  S
C1008      C1009   1.410       .  A
C1008      H1013   1.084       .  S
C1009      C1010   1.419       .  A
C1010      N1014   1.427       .  S
C1011      C1016   1.408       .  A
C1011      C1020   1.404       .  A
N1012      O1027   1.262       .  A
N1012      O1028   1.261       .  A
N1014      O1025   1.261       .  A
N1014      O1026   1.261       .  A
C1016      C1017   1.398       .  A
C1016      N1021   1.428       .  S
C1017      C1018   1.407       .  A
C1017      H1022   1.084       .  S
C1018      C1019   1.418       .  A
C1019      C1020   1.403       .  A
C1019      N1023   1.429       .  S
C1020      H1024   1.084       .  S
N1021      O1031   1.262       .  A
N1021      O1032   1.261       .  A
N1023      O1029   1.262       .  A
N1023      O1030   1.262       .  A
C1033      C1034   1.400       .  A
C1033      C1038   1.403       .  A
C1033      H1043   1.084       .  S
C1034      C1039   1.479       .  S
C1034      C1035   1.406   1_655  A
C1035      C1036   1.397       .  A
C1035      N1040   1.428       .  S
C1036      C1037   1.408   1_455  A
C1036      H1041   1.083       .  S
C1037      C1038   1.422       .  A
C1038      N1042   1.429       .  S
C1039      C1044   1.406       .  A
C1039      C1048   1.404   1_545  A
N1040      O1055   1.262       .  A
N1040      O1056   1.261       .  A
N1042      O1053   1.262       .  A
N1042      O1054   1.262   1_545  A
C1044      C1045   1.397       .  A
C1044      N1049   1.428       .  S
C1045      C1046   1.406       .  A
C1045      H1050   1.083       .  S
C1046      C1047   1.413   1_545  A
C1047      C1048   1.404       .  A
C1047      N1051   1.428       .  S
C1048      H1052   1.084       .  S
N1049      O1059   1.262       .  A
N1049      O1060   1.261   1_655  A
N1051      O1057   1.262       .  A
N1051      O1058   1.262   1_655  A
C1061      C1062   1.400   1_545  A
C1061      C1066   1.399       .  A
C1061      H1071   1.084       .  S
C1062      C1067   1.479       .  S
C1062      C1063   1.410   1_455  A
C1063      C1064   1.403       .  A
C1063      N1068   1.427       .  S
C1064      C1065   1.402   1_655  A
C1064      H1069   1.084       .  S
C1065      C1066   1.412   1_565  A
C1066      N1070   1.429       .  S
C1067      C1072   1.407   1_455  A
C1067      C1076   1.401       .  A
N1068      O1083   1.262   1_655  A
N1068      O1084   1.261       .  A
N1070      O1081   1.262       .  A
N1070      O1082   1.262       .  A
C1072      C1073   1.398       .  A
C1072      N1077   1.428   1_565  S
C1073      C1074   1.405   1_655  A
C1073      H1078   1.084   1_565  S
C1074      C1075   1.417       .  A
C1075      C1076   1.404       .  A
C1075      N1079   1.429       .  S
C1076      H1080   1.084       .  S
N1077      O1087   1.262       .  A
N1077      O1088   1.262   1_545  A
N1079      O1085   1.262       .  A
N1079      O1086   1.262       .  A
C1089      C1090   1.398       .  A
C1089      C1094   1.401       .  A
C1089      H1099   1.084       .  S
C1090      C1095   1.474       .  S
C1090      C1091   1.406       .  A
C1091      C1092   1.397       .  A
C1091      N1096   1.428   1_565  S
C1092      C1093   1.407       .  A
C1092      H1097   1.084   1_565  S
C1093      C1094   1.419       .  A
C1094      N1098   1.428       .  S
C1095      C1100   1.406       .  A
C1095      C1104   1.398   1_565  A
N1096      O1111   1.262       .  A
N1096      O1112   1.262   1_545  A
N1098      O1109   1.262   1_565  A
N1098      O1110   1.262       .  A
C1100      C1101   1.399       .  A
C1100      N1105   1.428       .  S
C1101      C1102   1.405       .  A
C1101      H1106   1.084       .  S
C1102      C1103   1.415   1_565  A
C1103      C1104   1.400       .  A
C1103      N1107   1.426       .  S
C1104      H1108   1.084       .  S
N1105      O1115   1.262       .  A
N1105      O1116   1.262       .  A
N1107      O1113   1.261       .  A
N1107      O1114   1.262       .  A
C1117      C1118   1.401   1_565  A
C1117      C1122   1.404       .  A
C1117      H1127   1.084       .  S
C1118      C1123   1.489       .  S
C1118      C1119   1.411       .  A
C1119      C1120   1.400       .  A
C1119      N1124   1.428       .  S
C1120      C1121   1.406       .  A
C1120      H1125   1.083       .  S
C1121      C1122   1.421   1_545  A
C1122      N1126   1.428       .  S
C1123      C1128   1.413   1_545  A
C1123      C1132   1.403       .  A
N1124      O1139   1.262       .  A
N1124      O1140   1.262       .  A
N1126      O1137   1.262       .  A
N1126      O1138   1.262   1_565  A
C1128      C1129   1.402       .  A
C1128      N1133   1.428       .  S
C1129      C1130   1.403   1_565  A
C1129      H1134   1.084       .  S
C1130      C1131   1.413       .  A
C1131      C1132   1.403       .  A
C1131      N1135   1.428       .  S
C1132      H1136   1.084       .  S
N1133      O1143   1.262       .  A
N1133      O1144   1.262       .  A
N1135      O1141   1.262       .  A
N1135      O1142   1.262       .  A
C1145      C1146   1.398       .  A
C1145      C1150   1.396       .  A
C1145      H1155   1.085       .  S
C1146      C1151   1.472       .  S
C1146      C1147   1.409       .  A
C1147      C1148   1.397       .  A
C1147      N1152   1.428       .  S
C1148      C1149   1.404       .  A
C1148      H1153   1.084       .  S
C1149      C1150   1.417       .  A
C1150      N1154   1.429       .  S
C1151      C1156   1.408       .  A
C1151      C1160   1.401       .  A
N1152      O1167   1.262       .  A
N1152      O1168   1.261       .  A
N1154      O1165   1.262       .  A
N1154      O1166   1.262       .  A
C1156      C1157   1.395       .  A
C1156      N1161   1.429       .  S
C1157      C1158   1.404       .  A
C1157      H1162   1.084       .  S
C1158      C1159   1.414       .  A
C1159      C1160   1.398       .  A
C1159      N1163   1.430       .  S
C1160      H1164   1.084       .  S
N1161      O1171   1.262       .  A
N1161      O1172   1.261       .  A
N1163      O1169   1.262       .  A
N1163      O1170   1.262       .  A
C1173      C1174   1.400       .  A
C1173      C1178   1.399       .  A
C1173      H1183   1.084       .  S
C1174      C1179   1.474       .  S
C1174      C1175   1.408       .  A
C1175      C1176   1.393       .  A
C1175      N1180   1.428       .  S
C1176      C1177   1.402       .  A
C1176      H1181   1.084       .  S
C1177      C1178   1.414       .  A
C1178      N1182   1.428       .  S
C1179      C1184   1.406       .  A
C1179      C1188   1.401       .  A
N1180      O1195   1.262       .  A
N1180      O1196   1.262       .  A
N1182      O1193   1.262       .  A
N1182      O1194   1.262       .  A
C1184      C1185   1.392       .  A
C1184      N1189   1.429       .  S
C1185      C1186   1.407       .  A
C1185      H1190   1.084       .  S
C1186      C1187   1.412       .  A
C1187      C1188   1.399       .  A
C1187      N1191   1.425       .  S
C1188      H1192   1.084       .  S
N1189      O1199   1.262       .  A
N1189      O1200   1.262       .  A
N1191      O1197   1.262       .  A
N1191      O1198   1.261       .  A
