geometry optimzed in LAMMPS
_audit_creation_date              2020-11-30 
_audit_creation_method            'lammps2cif' 
_symmetry_space_group_name_H-M    'P1' 
_symmetry_Int_Tables_number       1 
_symmetry_cell_setting            triclinic 
loop_ 
_symmetry_equiv_pos_as_xyz 
  x,y,z 
_cell_length_a                    47.84518093 
_cell_length_b                    47.80388157002095 
_cell_length_c                    38.984960519728794 
_cell_angle_alpha                 90.08442993517404 
_cell_angle_beta                  89.8640070224919 
_cell_angle_gamma                 120.419395403166 
loop_ 
_atom_site_label 
_atom_site_type_symbol 
_atom_site_fract_x 
_atom_site_fract_y 
_atom_site_fract_z 
_atom_site_charge 
Fe1        Fe  0.57439821  0.67374426  0.42593629     1.65800
Fe2        Fe  0.50804714  0.66673874  0.38411751     1.73200
Fe3        Fe  0.51112621  0.66901823  0.47107848     1.54400
O4          O  0.51478880  0.62955245  0.48491448    -0.81000
O5          O  0.49238516  0.69721374  0.40386682    -0.79300
O6          O  0.55965915  0.63552106  0.45954578    -0.83500
O7          O  0.59524782  0.70755737  0.46520172    -0.78400
O8          O  0.46412748  0.63725222  0.45387109    -0.80200
O9          O  0.54786722  0.70769375  0.36515639    -0.82900
C10         C  0.58400684  0.71277739  0.49229755     0.97900
C11         C  0.53460694  0.61982722  0.47826239     1.05300
O12         O  0.53140752  0.66989940  0.42696908    -1.11900
O13         O  0.52084827  0.63655280  0.35762054    -0.74300
O14         O  0.56266323  0.64096941  0.38644185    -0.77800
O15         O  0.55371266  0.69988723  0.49694346    -0.78500
C16         C  0.54299017  0.62956474  0.36158619     0.96800
O17         O  0.59097649  0.71152648  0.39212426    -0.76500
O18         O  0.46548095  0.62535701  0.39913917    -0.81600
C19         C  0.49542501  0.71344294  0.43110442     0.99400
C20         C  0.45018872  0.62074603  0.42713677     1.05300
O21         O  0.50640644  0.70863037  0.45876509    -0.77300
C22         C  0.57812142  0.72187864  0.37093192     1.03600
Fe23       Fe  0.65731330  0.57690303  0.09644937     1.65800
Fe24       Fe  0.65970584  0.51612081  0.14060265     1.73200
Fe25       Fe  0.65363593  0.51339166  0.05273865     1.54400
O26         O  0.61501359  0.51890209  0.03762089    -0.81000
O27         O  0.69402317  0.50542416  0.12159583    -0.79300
O28         O  0.61485025  0.55748036  0.07024646    -0.83500
O29         O  0.68339589  0.59459207  0.05127723    -0.78400
O30         O  0.62040340  0.46828328  0.07144174    -0.80200
O31         O  0.69833731  0.55992611  0.15696118    -0.82900
C32         C  0.69336407  0.58412629  0.02713449     0.97900
C33         C  0.60245948  0.53563570  0.04744200     1.05300
O34         O  0.65670388  0.53526422  0.09663316    -1.11900
O35         O  0.62646426  0.52475579  0.16645360    -0.74300
O36         O  0.63159771  0.56867211  0.14151390    -0.77800
O37         O  0.68653101  0.55482350  0.02624881    -0.78500
C38         C  0.62070880  0.54798075  0.16544466     0.96800
O39         O  0.69974733  0.59788733  0.12210874    -0.76500
O40         O  0.62212961  0.46962636  0.12851332    -0.81600
C41         C  0.70363398  0.50217811  0.09218334     0.99400
C42         C  0.61107893  0.45448123  0.10035666     1.05300
O43         O  0.69149096  0.50535702  0.06442939    -0.77300
C44         C  0.71221385  0.58846239  0.14463821     1.03600
Fe45       Fe  0.74727568  0.75314369  0.76033372     1.65800
Fe46       Fe  0.80855765  0.81401100  0.80575118     1.73200
Fe47       Fe  0.80819200  0.81838930  0.71822679     1.54400
O48         O  0.80699862  0.77728647  0.69927761    -0.81000
O49         O  0.82284133  0.86067359  0.78920467    -0.79300
O50         O  0.76878234  0.73507072  0.72948204    -0.83500
O51         O  0.72779554  0.76309507  0.71802297    -0.78400
O52         O  0.85497247  0.83488177  0.73615554    -0.80200
O53         O  0.76544325  0.80993246  0.82210476    -0.82900
C54         C  0.73670001  0.78381075  0.69415444     0.97900
C55         C  0.79096752  0.74716639  0.70675827     1.05300
O56         O  0.78795838  0.79506227  0.76141370    -1.11900
O57         O  0.79808367  0.77109032  0.83135343    -0.74300
O58         O  0.75689149  0.73310059  0.80229919    -0.77800
O59         O  0.76560927  0.80722474  0.69219870    -0.78500
C60         C  0.77587016  0.74172355  0.82771899     0.96800
O61         O  0.72495744  0.77080197  0.79081705    -0.76500
O62         O  0.85316800  0.82019315  0.79083178    -0.81600
C63         C  0.82104770  0.87521900  0.76270574     0.99400
C64         C  0.86867470  0.83271245  0.76313008     1.05300
O65         O  0.81092106  0.86086082  0.73416665    -0.77300
C66         C  0.73588790  0.79385018  0.81243367     1.03600
Fe67       Fe  0.33455401  0.42710203  0.90050875     1.65800
Fe68       Fe  0.32724448  0.48301390  0.85321831     1.73200
Fe69       Fe  0.33010790  0.48771469  0.94072219     1.54400
O70         O  0.29794080  0.44518464  0.96740087    -0.81000
O71         O  0.36714884  0.52885968  0.86365570    -0.79300
O72         O  0.31076219  0.41012459  0.94698703    -0.83500
O73         O  0.37837250  0.45322262  0.92432318    -0.78400
O74         O  0.29075626  0.49272322  0.92674842    -0.80200
O75         O  0.35678175  0.47037665  0.82543372    -0.82900
C76         C  0.38756057  0.47497306  0.94733345     0.97900
C77         C  0.29624640  0.41777992  0.96887324     1.05300
O78         O  0.33059158  0.46601584  0.89800824    -1.11900
O79         O  0.28627770  0.43804684  0.84285941    -0.74300
O80         O  0.29111475  0.40204658  0.87596429    -0.77800
O81         O  0.37013992  0.48628740  0.95834278    -0.78500
C82         C  0.27523249  0.40958996  0.85542193     0.96800
O83         O  0.35867038  0.43237232  0.85523086    -0.76500
O84         O  0.29700668  0.49944290  0.87038307    -0.81600
C85         C  0.37543272  0.54520569  0.89160364     0.99400
C86         C  0.28411545  0.50093669  0.89824287     1.05300
O87         O  0.36249309  0.53298729  0.92046306    -0.77300
C88         C  0.36500326  0.44905580  0.82836946     1.03600
Fe89       Fe  0.41037515  0.32493488  0.55809745     1.65800
Fe90       Fe  0.47070705  0.32649309  0.60343125     1.73200
Fe91       Fe  0.47637075  0.33305746  0.51632871     1.54400
O92         O  0.43561291  0.29910478  0.48842451    -0.81000
O93         O  0.51706770  0.36604441  0.59354777    -0.79300
O94         O  0.39840054  0.30894285  0.50851816    -0.83500
O95         O  0.43335272  0.37142003  0.54161298    -0.78400
O96         O  0.48680053  0.29644086  0.52776211    -0.80200
O97         O  0.45858901  0.35841196  0.62782696    -0.82900
C98         C  0.45614872  0.38554305  0.51985139     0.97900
C99         C  0.40819111  0.29705215  0.48594093     1.05300
O100        O  0.45278782  0.32787299  0.55918789    -1.11900
O101        O  0.42603636  0.28564137  0.61579459    -0.74300
O102        O  0.38937418  0.27837272  0.57535999    -0.77800
O103        O  0.46929717  0.37157205  0.50398393    -0.78500
C104        C  0.39865447  0.26842111  0.60075789     0.96800
O105        O  0.40982306  0.34089941  0.60726685    -0.76500
O106        O  0.48577308  0.29532753  0.58507283    -0.81600
C107        C  0.53333561  0.37724747  0.56589261     0.99400
C108        C  0.49128489  0.28621798  0.55632780     1.05300
O109        O  0.52078317  0.36719428  0.53652805    -0.77300
C110        C  0.43148241  0.35739198  0.62898941     1.03600
Fe111      Fe  0.23312331  0.24709193  0.23865151     1.65800
Fe112      Fe  0.17268564  0.18650785  0.19058025     1.73200
Fe113      Fe  0.16896618  0.18265731  0.27735173     1.54400
O114        O  0.21025498  0.19151826  0.30489131    -0.81000
O115        O  0.12922554  0.18478047  0.20105752    -0.79300
O116        O  0.25126050  0.23355650  0.27938329    -0.83500
O117        O  0.21298627  0.26681369  0.27016226    -0.78400
O118        O  0.16446484  0.13928784  0.26159425    -0.80200
O119        O  0.19028251  0.23096696  0.16473405    -0.82900
C120        C  0.18866518  0.25440324  0.29027865     0.97900
C121        C  0.24033079  0.21217173  0.30258016     1.05300
O122        O  0.19152759  0.20577612  0.23551965    -1.11900
O123        O  0.21427389  0.18544437  0.17974919    -0.74300
O124        O  0.25410939  0.22846498  0.20754105    -0.77800
O125        O  0.17139573  0.22409580  0.29607314    -0.78500
C126        C  0.24367667  0.20316437  0.18903034     0.96800
O127        O  0.22560308  0.27016922  0.19820866    -0.76500
O128        O  0.15179916  0.13833154  0.20676364    -0.81600
C129        C  0.11231245  0.17366430  0.22830461     0.99400
C130        C  0.15326222  0.12410719  0.23361793     1.05300
O131        O  0.12414467  0.17012232  0.25618246    -0.77300
C132        C  0.21036273  0.26089532  0.17026038     1.03600
Fe133      Fe  0.41362629  0.08756385  0.09471466     1.65800
Fe134      Fe  0.47464347  0.14890006  0.04990514     1.73200
Fe135      Fe  0.47450237  0.15142899  0.13781749     1.54400
O136        O  0.43039871  0.14647312  0.15274810    -0.81000
O137        O  0.52059047  0.16504219  0.06779153    -0.79300
O138        O  0.39173696  0.10919723  0.11828618    -0.83500
O139        O  0.42115834  0.07188325  0.14140802    -0.78400
O140        O  0.48674010  0.19676812  0.11859441    -0.80200
O141        O  0.47265434  0.10570851  0.03621871    -0.82900
C142        C  0.44148871  0.08148934  0.16568225     0.97900
C143        C  0.40185141  0.13208707  0.13999917     1.05300
O144        O  0.45443570  0.12935361  0.09419760    -1.11900
O145        O  0.43229083  0.13732771  0.02317679    -0.74300
O146        O  0.39503515  0.09295043  0.04858249    -0.77800
O147        O  0.46583838  0.11006561  0.16578202    -0.78500
C148        C  0.40360538  0.11345438  0.02449123     0.96800
O149        O  0.43606995  0.06635968  0.07068996    -0.76500
O150        O  0.47940918  0.19348757  0.06192170    -0.81600
C151        C  0.53507877  0.16742178  0.09570524     0.99400
C152        C  0.48673812  0.20943344  0.08994161     1.05300
O153        O  0.52032593  0.15937804  0.12450807    -0.77300
C154        C  0.45848471  0.07682791  0.04823663     1.03600
Fe155      Fe  0.23498125  0.99988840  0.75616068     1.65800
Fe156      Fe  0.17274533  0.99846649  0.71249771     1.73200
Fe157      Fe  0.17293265  0.00015074  0.79995771     1.54400
O158        O  0.17584830  0.96060187  0.81635095    -0.81000
O159        O  0.15754411  0.03022538  0.72916032    -0.79300
O160        O  0.21236898  0.95725240  0.78253747    -0.83500
O161        O  0.25365677  0.02612459  0.80068652    -0.78400
O162        O  0.12611178  0.96683419  0.78301492    -0.80200
O163        O  0.21610527  0.03770970  0.69579618    -0.82900
C164        C  0.24483558  0.03746813  0.82490422     0.97900
C165        C  0.18944595  0.94562535  0.80435482     1.05300
O166        O  0.19373534  0.99993415  0.75621766    -1.11900
O167        O  0.18339315  0.96640686  0.68711171    -0.74300
O168        O  0.22781474  0.97373504  0.71197682    -0.77800
O169        O  0.21611301  0.03271558  0.82589755    -0.78500
C170        C  0.20746780  0.96211606  0.68800536     0.96800
O171        O  0.25701968  0.04184985  0.72811157    -0.76500
O172        O  0.12833929  0.95912187  0.72696990    -0.81600
C173        C  0.15709123  0.04421794  0.75678527     0.99400
C174        C  0.11280852  0.95211321  0.75523853     1.05300
O175        O  0.16667558  0.03869332  0.78521949    -0.77300
C176        C  0.24601840  0.05197702  0.70444798     1.03600
Fe177      Fe  0.32573629  0.90752009  0.43152032     1.65800
Fe178      Fe  0.32109307  0.84105605  0.46998546     1.73200
Fe179      Fe  0.32458742  0.84719523  0.38329883     1.54400
O180        O  0.28483507  0.85043249  0.36935373    -0.81000
O181        O  0.35121834  0.82566995  0.44924014    -0.79300
O182        O  0.28644025  0.89137126  0.39951079    -0.83500
O183        O  0.35767444  0.93031483  0.39131844    -0.78400
O184        O  0.29309962  0.79919492  0.39820367    -0.80200
O185        O  0.36246047  0.88087311  0.48832885    -0.82900
C186        C  0.36515166  0.92093453  0.36432806     0.97900
C187        C  0.27321020  0.86831030  0.37786449     1.05300
O188        O  0.32379585  0.86545178  0.42827779    -1.11900
O189        O  0.29079842  0.85255647  0.49889537    -0.74300
O190        O  0.29422254  0.89479166  0.47215664    -0.77800
O191        O  0.35530180  0.89114728  0.35916426    -0.78500
C192        C  0.28331533  0.87450055  0.49641872     0.96800
O193        O  0.36490971  0.92454027  0.46349586    -0.76500
O194        O  0.28027630  0.79914487  0.45297609    -0.81600
C195        C  0.36824301  0.83004871  0.42240519     0.99400
C196        C  0.27613138  0.78452926  0.42443711     1.05300
O197        O  0.36461083  0.84289081  0.39549057    -0.77300
C198        C  0.37652422  0.91118172  0.48235358     1.03600
Fe199      Fe  0.56918802  0.91346038  0.91316475     1.65800
Fe200      Fe  0.50405808  0.84737222  0.94964119     1.73200
Fe201      Fe  0.51372068  0.85283539  0.86193551     1.54400
O202        O  0.52691731  0.89702083  0.83744552    -0.81000
O203        O  0.50046502  0.80404130  0.93420949    -0.79300
O204        O  0.56364057  0.93585472  0.87027659    -0.83500
O205        O  0.59463610  0.89743029  0.88550360    -0.78400
O206        O  0.46719004  0.84432721  0.86971430    -0.80200
O207        O  0.54407611  0.85669147  0.98029718    -0.82900
C208        C  0.58678408  0.87525376  0.86331229     0.97900
C209        C  0.54757941  0.92683458  0.84268640     1.05300
O210        O  0.52878424  0.87130191  0.90824003    -1.11900
O211        O  0.50477456  0.88846640  0.96867291    -0.74300
O212        O  0.54572625  0.93102150  0.94176550    -0.77800
O213        O  0.55824680  0.85816920  0.85142863    -0.78500
C214        C  0.52168410  0.91874231  0.96220759     0.96800
O215        O  0.58403436  0.90069151  0.95657449    -0.76500
O216        O  0.45990502  0.83362045  0.92599829    -0.81600
C217        C  0.49540323  0.79034271  0.90500623     0.99400
C218        C  0.44917966  0.83391289  0.89620728     1.05300
O219        O  0.49839078  0.80554139  0.87726079    -0.77300
C220        C  0.57345141  0.87956309  0.98003737     1.03600
Fe221      Fe  0.74994253  0.99792965  0.23851839     1.65800
Fe222      Fe  0.81103515  0.99538282  0.28127755     1.73200
Fe223      Fe  0.81200930  0.99971503  0.19308022     1.54400
O224        O  0.76915273  0.96773434  0.16632889    -0.81000
O225        O  0.85536019  0.03525783  0.26984276    -0.79300
O226        O  0.73005114  0.96671609  0.19772345    -0.83500
O227        O  0.76707427  0.03758574  0.20695799    -0.78400
O228        O  0.81868233  0.96104906  0.20361843    -0.80200
O229        O  0.79892270  0.02508454  0.31027504    -0.82900
C230        C  0.79066512  0.05097057  0.18618698     0.97900
C231        C  0.73931238  0.95810355  0.17135788     1.05300
O232        O  0.79104873  0.99773928  0.23761767    -1.11900
O233        O  0.76891228  0.95452133  0.29598549    -0.74300
O234        O  0.72940393  0.95850820  0.27011397    -0.77800
O235        O  0.80850892  0.03922134  0.17851162    -0.78500
C236        C  0.73925791  0.94381278  0.28925727     0.96800
O237        O  0.76235745  0.02907215  0.27944738    -0.76500
O238        O  0.82647664  0.96542908  0.26008044    -0.81600
C239        C  0.87096012  0.04383855  0.24174474     0.99400
C240        C  0.82746551  0.95352541  0.23112868     1.05300
O241        O  0.85796706  0.03200616  0.21275762    -0.77300
C242        C  0.77965997  0.03584648  0.30608972     1.03600
Fe243      Fe  0.66650934  0.09419867  0.56956170     1.65800
Fe244      Fe  0.65753450  0.15068695  0.52448007     1.73200
Fe245      Fe  0.66610852  0.15595774  0.61232402     1.54400
O246        O  0.63678749  0.11366306  0.64140171    -0.81000
O247        O  0.69531247  0.19783978  0.53314128    -0.79300
O248        O  0.64362093  0.07626815  0.61611929    -0.83500
O249        O  0.71056031  0.11774226  0.59287252    -0.78400
O250        O  0.62577709  0.16077266  0.60285953    -0.80200
O251        O  0.68920288  0.14170013  0.49494775    -0.82900
C252        C  0.72234317  0.14040075  0.61482809     0.97900
C253        C  0.63291873  0.08523682  0.64087002     1.05300
O254        O  0.66342809  0.13377720  0.56874608    -1.11900
O255        O  0.61802496  0.10523742  0.51297366    -0.74300
O256        O  0.62277942  0.06961110  0.54611835    -0.77800
O257        O  0.70754779  0.15477773  0.62529295    -0.78500
C258        C  0.60707986  0.07677986  0.52513669     0.96800
O259        O  0.68993279  0.10241560  0.52368303    -0.76500
O260        O  0.62538788  0.16301655  0.54580608    -0.81600
C261        C  0.70515150  0.21419561  0.56079908     0.99400
C262        C  0.61527015  0.16602606  0.57503317     1.05300
O263        O  0.69568390  0.20123656  0.59029782    -0.77300
C264        C  0.69740592  0.12032564  0.49755213     1.03600
Fe265      Fe  0.07924264  0.42060781  0.43371258     1.65800
Fe266      Fe  0.14434150  0.48253140  0.47602475     1.73200
Fe267      Fe  0.14539340  0.47743599  0.38925035     1.54400
O268        O  0.13919040  0.43249521  0.37838438    -0.81000
O269        O  0.16396840  0.52861204  0.45457419    -0.79300
O270        O  0.09583227  0.39454352  0.40736585    -0.83500
O271        O  0.06258040  0.43022138  0.38925442    -0.78400
O272        O  0.19048207  0.49101202  0.40957080    -0.80200
O273        O  0.10336403  0.48521043  0.48844790    -0.82900
C274        C  0.07487932  0.44739314  0.36284448     0.97900
C275        C  0.12014936  0.40321256  0.38776776     1.05300
O276        O  0.12291402  0.46003556  0.43302301    -1.11900
O277        O  0.12839688  0.44022011  0.50502615    -0.74300
O278        O  0.08549528  0.40167187  0.47827788    -0.77800
O279        O  0.10503015  0.46695436  0.36004654    -0.78500
C280        C  0.10471966  0.41122544  0.50337074     0.96800
O281        O  0.06124631  0.44519342  0.45993505    -0.76500
O282        O  0.18786120  0.48334305  0.46585722    -0.81600
C283        C  0.16387388  0.54087138  0.42566211     0.99400
C284        C  0.20383937  0.49129502  0.43781753     1.05300
O285        O  0.15311075  0.52372057  0.39858082    -0.77300
C286        C  0.07366159  0.47008470  0.47919313     1.03600
Fe287      Fe  0.90363846  0.34176149  0.10068636     1.65800
Fe288      Fe  0.84079451  0.33916435  0.05747348     1.73200
Fe289      Fe  0.83820543  0.33436945  0.14501360     1.54400
O290        O  0.83961185  0.29251706  0.15548069    -0.81000
O291        O  0.82640369  0.37002255  0.07816859    -0.79300
O292        O  0.88463495  0.30002413  0.12867694    -0.83500
O293        O  0.92109124  0.36967581  0.14396630    -0.78400
O294        O  0.79241934  0.30563508  0.12498333    -0.80200
O295        O  0.88307417  0.38015570  0.04165504    -0.82900
C296        C  0.90938600  0.37308302  0.17161449     0.97900
C297        C  0.85907364  0.28296117  0.14632556     1.05300
O298        O  0.86101630  0.33862861  0.10110780    -1.11900
O299        O  0.85268707  0.30845963  0.03046895    -0.74300
O300        O  0.89593146  0.31403361  0.05696908    -0.77800
O301        O  0.87918982  0.36162627  0.17539345    -0.78500
C302        C  0.87582078  0.30263406  0.03255198     0.96800
O303        O  0.92402930  0.38388204  0.07286744    -0.76500
O304        O  0.79605661  0.29884554  0.06933199    -0.81600
C305        C  0.82649353  0.38317244  0.10672429     0.99400
C306        C  0.77950105  0.29219742  0.09681349     1.05300
O307        O  0.83434524  0.37534118  0.13496271    -0.77300
C308        C  0.91264513  0.39512120  0.05100924     1.03600
Fe309      Fe  0.98949248  0.24179151  0.76993730     1.65800
Fe310      Fe  0.98622339  0.17766985  0.81277376     1.73200
Fe311      Fe  0.98641551  0.17909852  0.72544006     1.54400
O312        O  0.94737593  0.18277568  0.70960598    -0.81000
O313        O  0.01267986  0.15746471  0.79270916    -0.79300
O314        O  0.95098699  0.22604885  0.73678870    -0.83500
O315        O  0.02115533  0.26132470  0.72936899    -0.78400
O316        O  0.95440737  0.13335604  0.74548256    -0.80200
O317        O  0.02942215  0.21759985  0.82618042    -0.82900
C318        C  0.02783275  0.25142165  0.70216198     0.97900
C319        C  0.93762339  0.20262837  0.71564693     1.05300
O320        O  0.98706761  0.19958704  0.76932492    -1.11900
O321        O  0.95989117  0.19360729  0.84214079    -0.74300
O322        O  0.95785984  0.23082811  0.81058422    -0.77800
O323        O  0.01767460  0.22143099  0.69750410    -0.78500
C324        C  0.95061144  0.21399752  0.83771467     0.96800
O325        O  0.02878096  0.25997602  0.80207500    -0.76500
O326        O  0.94351850  0.13585272  0.80057779    -0.81600
C327        C  0.02849577  0.16022099  0.76539328     0.99400
C328        C  0.93862534  0.11996522  0.77290151     1.05300
O329        O  0.02549758  0.17378258  0.73868377    -0.77300
C330        C  0.04225860  0.24768632  0.81970737     1.03600
Fe331      Fe  0.08233927  0.66219020  0.89837646     1.65800
Fe332      Fe  0.14464912  0.66407506  0.94244951     1.73200
Fe333      Fe  0.14596219  0.66514468  0.85513785     1.54400
O334        O  0.10411289  0.63838577  0.82487273    -0.81000
O335        O  0.18894412  0.70496334  0.92966742    -0.79300
O336        O  0.06326665  0.63136837  0.85736104    -0.83500
O337        O  0.10166620  0.70201535  0.86716934    -0.78400
O338        O  0.14705785  0.62298955  0.86742590    -0.80200
O339        O  0.13093969  0.69373791  0.96948116    -0.82900
C340        C  0.12748240  0.71787911  0.84951852     0.97900
C341        C  0.07397673  0.62734975  0.82931037     1.05300
O342        O  0.12412898  0.66373760  0.89870868    -1.11900
O343        O  0.10272931  0.62274848  0.95819556    -0.74300
O344        O  0.06190299  0.62257200  0.92980225    -0.77800
O345        O  0.14684381  0.70764272  0.84260685    -0.78500
C346        C  0.07279535  0.61018544  0.95091738     0.96800
O347        O  0.09109164  0.69246241  0.93969526    -0.76500
O348        O  0.16084340  0.63405258  0.92264239    -0.81600
C349        C  0.20550967  0.70929343  0.90248603     0.99400
C350        C  0.15834236  0.61833276  0.89517262     1.05300
O351        O  0.19248978  0.69352129  0.87513842    -0.77300
C352        C  0.10905007  0.70129353  0.96587627     1.03600
Fe353      Fe  0.00017604  0.75978074  0.23763374     1.65800
Fe354      Fe  0.99762685  0.81870078  0.19036567     1.73200
Fe355      Fe  0.00126290  0.82402452  0.27797239     1.54400
O356        O  0.96934645  0.78336961  0.30705839    -0.81000
O357        O  0.03819718  0.86458315  0.19962740    -0.79300
O358        O  0.97244330  0.74377259  0.28163968    -0.83500
O359        O  0.04209336  0.78239533  0.26512705    -0.78400
O360        O  0.96267114  0.82978212  0.26515505    -0.80200
O361        O  0.02726120  0.80509428  0.16396269    -0.82900
C362        C  0.05469800  0.80627713  0.28571093     0.97900
C363        C  0.96198216  0.75390582  0.30566866     1.05300
O364        O  0.99955508  0.80074521  0.23525134    -1.11900
O365        O  0.95680974  0.77479488  0.17901306    -0.74300
O366        O  0.95834132  0.73573356  0.20976735    -0.77800
O367        O  0.04124288  0.82228911  0.29448903    -0.78500
C368        C  0.94465985  0.74550312  0.18904102     0.96800
O369        O  0.02774273  0.76632825  0.19415776    -0.76500
O370        O  0.96696068  0.83503435  0.20833024    -0.81600
C371        C  0.04604784  0.88085888  0.22745740     0.99400
C372        C  0.95507249  0.83719614  0.23685080     1.05300
O373        O  0.03289906  0.86795201  0.25593020    -0.77300
C374        C  0.03556833  0.78381520  0.16758026     1.03600
Fe375      Fe  0.89763354  0.58339366  0.57026136     1.65800
Fe376      Fe  0.84232591  0.51801208  0.52472507     1.73200
Fe377      Fe  0.83626201  0.51991721  0.61269221     1.54400
O378        O  0.87852190  0.52934041  0.63869475    -0.81000
O379        O  0.79506961  0.50771977  0.53481297    -0.79300
O380        O  0.91370903  0.57734049  0.61716249    -0.83500
O381        O  0.87238513  0.60171765  0.59274484    -0.78400
O382        O  0.82822085  0.47401639  0.60105990    -0.80200
O383        O  0.85026076  0.55859878  0.49594652    -0.82900
C384        C  0.85160330  0.59107689  0.61667674     0.97900
C385        C  0.90584175  0.55542117  0.63954834     1.05300
O386        O  0.85855150  0.54018312  0.56910060    -1.11900
O387        O  0.88861492  0.52610629  0.51325185    -0.74300
O388        O  0.92390302  0.56609560  0.54770486    -0.77800
O389        O  0.84000062  0.56292186  0.62966495    -0.78500
C390        C  0.91697644  0.54381682  0.52597999     0.96800
O391        O  0.89021355  0.59915925  0.52381278    -0.76500
O392        O  0.83082147  0.47313768  0.54421187    -0.81600
C393        C  0.77896501  0.50368153  0.56244788     0.99400
C394        C  0.82536278  0.45910674  0.57313816     1.05300
O395        O  0.79154065  0.50787352  0.59214485    -0.77300
C396        C  0.87155109  0.58845264  0.49815456     1.03600
C397        C  0.91407807  0.71413389  0.38892650    -0.13700
C398        C  0.91060047  0.68309645  0.38675118     0.16700
C399        C  0.92116719  0.67508745  0.35637643     0.03000
C400        C  0.93605094  0.69804367  0.33020446    -0.12200
C401        C  0.94165748  0.72986833  0.33308571    -0.03300
C402        C  0.92952734  0.73747178  0.36274571     0.02200
C403        C  0.89704963  0.65974941  0.41642887     0.09000
N404        N  0.91897330  0.64433543  0.35223216     0.65400
H405        H  0.94444058  0.69092753  0.30792503     0.18300
N406        N  0.93296667  0.76871406  0.36733731     0.75900
H407        H  0.90510351  0.72051691  0.41123960     0.09800
C408        C  0.90945588  0.66880963  0.45000963     0.03500
C409        C  0.89917721  0.64545475  0.47611504    -0.05200
C410        C  0.87658664  0.61239413  0.47012569    -0.23600
C411        C  0.86216466  0.60380415  0.43713315     0.12800
C412        C  0.87236374  0.62738833  0.41095479    -0.12700
N413        N  0.93403363  0.70129353  0.45796950     0.64400
H414        H  0.91017805  0.65336100  0.50106530     0.12300
N415        N  0.83778487  0.57130914  0.42905109     0.61100
H416        H  0.86130798  0.62013052  0.38598267     0.08500
O417        O  0.95489638  0.78882708  0.38698582    -0.40400
O418        O  0.90930207  0.77242419  0.36034932    -0.39600
O419        O  0.89794085  0.62380311  0.33210949    -0.39600
O420        O  0.94300225  0.64159257  0.36027710    -0.37300
O421        O  0.80849218  0.56406364  0.42923467    -0.38200
O422        O  0.84568828  0.55388064  0.41206086    -0.34300
O423        O  0.92640378  0.71903323  0.47478544    -0.35700
O424        O  0.96334851  0.70868118  0.45697321    -0.40000
C425        C  0.07874974  0.74921174  0.11281652    -0.13700
C426        C  0.08116066  0.76362934  0.08074569     0.16700
C427        C  0.07028635  0.78616138  0.07830566     0.03000
C428        C  0.05700274  0.79321385  0.10705995    -0.12200
C429        C  0.05354759  0.77805766  0.13898369    -0.03300
C430        C  0.06517640  0.75597469  0.14158001     0.02200
C431        C  0.09087380  0.75150428  0.04971808     0.09000
N432        N  0.07235527  0.80224382  0.04675179     0.65400
H433        H  0.04848575  0.81012505  0.10390405     0.18300
N434        N  0.06287619  0.73937564  0.17285491     0.75900
H435        H  0.08611964  0.73134966  0.11529908     0.09800
C436        C  0.11988318  0.75036567  0.04798317     0.03500
C437        C  0.12567534  0.73485137  0.02028375    -0.05200
C438        C  0.10311240  0.71997158  0.99357356    -0.23600
C439        C  0.07428640  0.72179668  0.99511899     0.12800
C440        C  0.06866752  0.73731427  0.02276992    -0.12700
N441        N  0.14406532  0.76505034  0.07395694     0.64400
H442        H  0.14792856  0.73419930  0.01998071     0.12300
N443        N  0.04924622  0.70651537  0.97002374     0.61100
H444        H  0.04586280  0.73684191  0.02390525     0.08500
O445        O  0.08771814  0.74971201  0.19147757    -0.40400
O446        O  0.04008104  0.71046622  0.17649127    -0.39600
O447        O  0.04684189  0.79330689  0.02963842    -0.39600
O448        O  0.09637772  0.83024116  0.04179331    -0.37300
O449        O  0.02604983  0.67817938  0.97570137    -0.38200
O450        O  0.04543720  0.72399912  0.94850322    -0.34300
O451        O  0.14736742  0.74710663  0.09528584    -0.35700
O452        O  0.16723628  0.79361113  0.06938361    -0.40000
C453        C  0.03348394  0.60569207  0.74047961    -0.13700
C454        C  0.00054650  0.59010321  0.74955084     0.16700
C455        C  0.99212262  0.58348926  0.78444082     0.03000
C456        C  0.01641664  0.59385393  0.80954060    -0.12200
C457        C  0.04968028  0.61095109  0.80091014    -0.03300
C458        C  0.05793298  0.61582478  0.76559193     0.02200
C459        C  0.97546716  0.58081736  0.72222711     0.09000
N460        N  0.95899534  0.56752123  0.79511712     0.65400
H461        H  0.00904895  0.58940380  0.83612344     0.18300
N462        N  0.09091825  0.63199944  0.75451515     0.75900
H463        H  0.04028967  0.61036210  0.71376000     0.09800
C464        C  0.97115475  0.60433021  0.70513787     0.03500
C465        C  0.94855610  0.59512811  0.67851317    -0.05200
C466        C  0.92933444  0.56256374  0.66820044    -0.23600
C467        C  0.93354725  0.53888822  0.68540948     0.12800
C468        C  0.95646109  0.54821376  0.71211320    -0.12700
N469        N  0.98875664  0.63765968  0.71513062     0.64400
H470        H  0.94565935  0.61379588  0.66618056     0.12300
N471        N  0.91594963  0.50558460  0.67538369     0.61100
H472        H  0.95978517  0.52991982  0.72470160     0.08500
O473        O  0.10448696  0.66149806  0.74606587    -0.40400
O474        O  0.10291310  0.61522356  0.74439168    -0.39600
O475        O  0.94499520  0.53790734  0.80318714    -0.39600
O476        O  0.94689615  0.58435929  0.80469053    -0.37300
O477        O  0.92941437  0.49485255  0.65579835    -0.38200
O478        O  0.89206789  0.48582060  0.69330285    -0.34300
O479        O  0.01157363  0.65775966  0.69626203    -0.35700
O480        O  0.97586273  0.64791995  0.73610277    -0.40000
C481        C  0.90734893  0.21311813  0.92230833    -0.13700
C482        C  0.90342128  0.24018843  0.91780084     0.16700
C483        C  0.91352672  0.25697456  0.88627898     0.03000
C484        C  0.92681896  0.24660833  0.86045893    -0.12200
C485        C  0.93205807  0.22034571  0.86520073    -0.03300
C486        C  0.92173346  0.20334254  0.89680356     0.02200
C487        C  0.89342637  0.25310734  0.94786224     0.09000
N488        N  0.91399371  0.28678654  0.88111178     0.65400
H489        H  0.93488302  0.26074081  0.83717193     0.18300
N490        N  0.92668826  0.17693798  0.90435417     0.75900
H491        H  0.90037555  0.20021130  0.94641073     0.09800
C492        C  0.86658457  0.25799497  0.94747464     0.03500
C493        C  0.86081948  0.27330239  0.97542218    -0.05200
C494        C  0.88060637  0.28315879  0.00487847    -0.23600
C495        C  0.90575542  0.27555784  0.00618963     0.12800
C496        C  0.91206345  0.26130582  0.97786699    -0.12700
N497        N  0.84362125  0.24580317  0.92010133     0.64400
H498        H  0.84065864  0.27744268  0.97392862     0.12300
N499        N  0.92525890  0.28173832  0.03607696     0.61100
H500        H  0.93212372  0.25696394  0.97926294     0.08500
O501        O  0.90289505  0.14834523  0.90284751    -0.40400
O502        O  0.95140248  0.18238723  0.92127989    -0.39600
O503        O  0.93863888  0.31283404  0.89063448    -0.39600
O504        O  0.89597581  0.28803487  0.85832753    -0.37300
O505        O  0.91809410  0.25876850  0.05673779    -0.38200
O506        O  0.95363523  0.30595018  0.03635435    -0.34300
O507        O  0.81933048  0.21759846  0.92279806    -0.35700
O508        O  0.84196867  0.26564089  0.90012130    -0.40000
C509        C  0.03055082  0.52457817  0.98565961    -0.13700
C510        C  0.99937161  0.51944203  0.99135966     0.16700
C511        C  0.99318843  0.54490214  0.98614244     0.03000
C512        C  0.01784312  0.57456152  0.97370091    -0.12200
C513        C  0.04894107  0.57959283  0.96720434    -0.03300
C514        C  0.05548972  0.55451437  0.97408325     0.02200
C515        C  0.97516823  0.48841394  0.00650405     0.09000
N516        N  0.96267165  0.54168851  0.99482589     0.65400
H517        H  0.01270706  0.59387810  0.96939613     0.18300
N518        N  0.08688463  0.55856641  0.96867292     0.75900
H519        H  0.03559365  0.50528952  0.99061990     0.09800
C520        C  0.94924175  0.46412177  0.98745497     0.03500
C521        C  0.92897647  0.43385112  0.00247672    -0.05200
C522        C  0.93458432  0.42727500  0.03606351    -0.23600
C523        C  0.96058771  0.45190207  0.05501139     0.12800
C524        C  0.98044870  0.48213525  0.04011937    -0.12700
N525        N  0.94404493  0.46913385  0.95247246     0.64400
H526        H  0.90932082  0.41523568  0.98755877     0.12300
N527        N  0.96676184  0.44715163  0.08973047     0.61100
H528        H  0.00045376  0.50073384  0.05471787     0.08500
O529        O  0.09207776  0.54704993  0.94188428    -0.40400
O530        O  0.10573136  0.56542500  0.99391122    -0.39600
O531        O  0.95947777  0.55162225  0.02376099    -0.39600
O532        O  0.94338265  0.53841043  0.97107002    -0.37300
O533        O  0.98892785  0.44091211  0.09585344    -0.38200
O534        O  0.95689624  0.45784678  0.11361442    -0.34300
O535        O  0.95515284  0.45920501  0.92906690    -0.35700
O536        O  0.92149532  0.47454499  0.94539038    -0.40000
C537        C  0.99913889  0.47586610  0.49627045    -0.13700
C538        C  0.01167806  0.50909510  0.49208478     0.16700
C539        C  0.04508736  0.52997345  0.48724150     0.03000
C540        C  0.06559569  0.51707934  0.48565320    -0.12200
C541        C  0.05288176  0.48340751  0.48850417    -0.03300
C542        C  0.01934032  0.46282833  0.49441141     0.02200
C543        C  0.98997955  0.52180994  0.49783210     0.09000
N544        N  0.05801887  0.56402232  0.48260765     0.65400
H545        H  0.09113910  0.53314968  0.48035636     0.18300
N546        N  0.00531531  0.42864332  0.49879593     0.75900
H547        H  0.97353528  0.46000559  0.50135737     0.09800
C548        C  0.96516005  0.51603539  0.47465648     0.03500
C549        C  0.94191870  0.52412756  0.48384828    -0.05200
C550        C  0.94318446  0.53790953  0.51599352    -0.23600
C551        C  0.96900166  0.54468691  0.53870087     0.12800
C552        C  0.99203556  0.53654657  0.52933826    -0.12700
N553        N  0.96297832  0.50159967  0.44195134     0.64400
H554        H  0.92268526  0.51921425  0.46606801     0.12300
N555        N  0.97115937  0.55763634  0.57232919     0.61100
H556        H  0.01075596  0.54037666  0.54739580     0.08500
O557        O  0.99002238  0.41006282  0.47412481    -0.40400
O558        O  0.00006152  0.41720812  0.52880823    -0.39600
O559        O  0.06795540  0.58262316  0.50830719    -0.39600
O560        O  0.05305841  0.57419668  0.45474098    -0.37300
O561        O  0.96050922  0.53842498  0.59748583    -0.38200
O562        O  0.99130275  0.58721391  0.57771885    -0.34300
O563        O  0.94365180  0.47159960  0.43809184    -0.35700
O564        O  0.97369983  0.51956807  0.41582928    -0.40000
C565        C  0.06553620  0.33514623  0.56053985    -0.13700
C566        C  0.08312218  0.34684861  0.59108421     0.16700
C567        C  0.10936627  0.37921896  0.59168337     0.03000
C568        C  0.11653924  0.39923610  0.56264097    -0.12200
C569        C  0.09820156  0.38793035  0.53235681    -0.03300
C570        C  0.07266673  0.35500047  0.53149244     0.02200
C571        C  0.07295823  0.32440031  0.62138296     0.09000
N572        N  0.12985839  0.39213620  0.62098428     0.65400
H573        H  0.13646558  0.42396738  0.56409994     0.18300
N574        N  0.05331868  0.34098365  0.50156092     0.75900
H575        H  0.04560145  0.31037356  0.55935890     0.09800
C576        C  0.05987165  0.32993229  0.65134368     0.03500
C577        C  0.04715391  0.30648691  0.67742482    -0.05200
C578        C  0.04590547  0.27641848  0.67459210    -0.23600
C579        C  0.05916458  0.27092884  0.64451242     0.12800
C580        C  0.07256992  0.29482495  0.61857063    -0.12700
N581        N  0.05646018  0.35782722  0.65471950     0.64400
H582        H  0.03654744  0.31146468  0.69943441     0.12300
N583        N  0.05929574  0.24140802  0.63950915     0.61100
H584        H  0.08205488  0.28987921  0.59558233     0.08500
O585        O  0.02581261  0.33850040  0.49986531    -0.40400
O586        O  0.05947038  0.32356920  0.48225036    -0.39600
O587        O  0.15495667  0.38983088  0.62244423    -0.39600
O588        O  0.12907037  0.41414525  0.63809835    -0.37300
O589        O  0.03782399  0.21963589  0.62074270    -0.38200
O590        O  0.08511585  0.24111997  0.64508270    -0.34300
O591        O  0.03042913  0.35587706  0.64484460    -0.35700
O592        O  0.07352738  0.37908702  0.67665653    -0.40000
C593        C  0.03577873  0.42689312  0.27451628    -0.13700
C594        C  0.00670297  0.42701677  0.28029914     0.16700
C595        C  0.00133305  0.43540136  0.31367443     0.03000
C596        C  0.02412541  0.44270016  0.33985283    -0.12200
C597        C  0.05300067  0.44282497  0.33375630    -0.03300
C598        C  0.05890119  0.43502688  0.30066430     0.02200
C599        C  0.98133129  0.41577613  0.25247883     0.09000
N600        N  0.97309544  0.43713735  0.32164592     0.65400
H601        H  0.01917454  0.44837540  0.36530324     0.18300
N602        N  0.08728608  0.43309723  0.29401410     0.75900
H603        H  0.04007021  0.41904191  0.24997525     0.09800
C604        C  0.98886713  0.42633016  0.21793892     0.03500
C605        C  0.96468855  0.41324425  0.19262623    -0.05200
C606        C  0.93247109  0.38983201  0.20046351    -0.23600
C607        C  0.92461172  0.37991579  0.23497716     0.12800
C608        C  0.94894310  0.39238874  0.26022726    -0.12700
N609        N  0.02083568  0.45046016  0.20770008     0.64400
H610        H  0.97138181  0.42121049  0.16641487     0.12300
N611        N  0.89253313  0.35564560  0.24469348     0.61100
H612        H  0.94251912  0.38258086  0.28581725     0.08500
O613        O  0.08897341  0.40921754  0.30516210    -0.40400
O614        O  0.11268657  0.45793639  0.28352511    -0.39600
O615        O  0.95146323  0.41541518  0.34038419    -0.39600
O616        O  0.97465859  0.46422002  0.31946134    -0.37300
O617        O  0.88567107  0.32652782  0.24714297    -0.38200
O618        O  0.87430546  0.36421451  0.25885756    -0.34300
O619        O  0.03787556  0.44172433  0.19121880    -0.35700
O620        O  0.02732952  0.47944705  0.20506767    -0.40000
C621        C  0.80057465  0.14346008  0.63935811    -0.13700
C622        C  0.81634699  0.17283681  0.65722380     0.16700
C623        C  0.80216677  0.19233011  0.65934066     0.03000
C624        C  0.77167311  0.18135234  0.64505106    -0.12200
C625        C  0.75495471  0.15111363  0.62848294    -0.03300
C626        C  0.77004846  0.13227539  0.62518379     0.02200
C627        C  0.84735215  0.18200967  0.67369417     0.09000
N628        N  0.81781574  0.22279218  0.67680177     0.65400
H629        H  0.76102026  0.19655606  0.64724433     0.18300
N630        N  0.75449610  0.10119440  0.60891478     0.75900
H631        H  0.81182080  0.12880614  0.63693050     0.09800
C632        C  0.84926415  0.16144431  0.69825227     0.03500
C633        C  0.87927060  0.16862025  0.71092816    -0.05200
C634        C  0.90748210  0.19619006  0.69979550    -0.23600
C635        C  0.90585961  0.21702069  0.67538401     0.12800
C636        C  0.87567474  0.20970554  0.66239711    -0.12700
N637        N  0.82091052  0.13333340  0.71089304     0.64400
H638        H  0.88051761  0.15282297  0.72997108     0.12300
N639        N  0.93449476  0.24461710  0.66238259     0.61100
H640        H  0.87441060  0.22503348  0.64282264     0.08500
O641        O  0.74125213  0.07605173  0.62736128    -0.40400
O642        O  0.76181610  0.09897959  0.57830794    -0.39600
O643        O  0.83092756  0.24860885  0.65941532    -0.39600
O644        O  0.81094462  0.22384931  0.70786196    -0.37300
O645        O  0.94774887  0.24151278  0.63576200    -0.38200
O646        O  0.94108074  0.27262474  0.67155895    -0.34300
O647        O  0.81498974  0.10563146  0.70131538    -0.35700
O648        O  0.80732214  0.13576572  0.73757967    -0.40000
C649        C  0.74929838  0.30415127  0.53542193    -0.13700
C650        C  0.76867096  0.31877288  0.56449757     0.16700
C651        C  0.76782397  0.29832265  0.59122957     0.03000
C652        C  0.74811902  0.26459322  0.58841566    -0.12200
C653        C  0.72833483  0.24995876  0.55969390    -0.03300
C654        C  0.72933428  0.27026915  0.53271273     0.02200
C655        C  0.78648472  0.35505527  0.56789009     0.09000
N656        N  0.78624485  0.31111914  0.62194413     0.65400
H657        H  0.74788695  0.24971114  0.60948159     0.18300
N658        N  0.70856288  0.25742865  0.50356391     0.75900
H659        H  0.74818427  0.31915600  0.51535931     0.09800
C660        C  0.80637827  0.37603840  0.54145851     0.03500
C661        C  0.81974343  0.40971201  0.54449336    -0.05200
C662        C  0.81398620  0.42362078  0.57349904    -0.23600
C663        C  0.79482132  0.40270851  0.60032971     0.12800
C664        C  0.78110371  0.36900160  0.59707312    -0.12700
N665        N  0.81332341  0.36383251  0.51111647     0.64400
H666        H  0.83438115  0.42501654  0.52361711     0.12300
N667        N  0.78725102  0.41480892  0.63031345     0.61100
H668        H  0.76489347  0.35363507  0.61693827     0.08500
O669        O  0.72051994  0.25575414  0.47528530    -0.40400
O670        O  0.68200485  0.25707207  0.50361829    -0.39600
O671        O  0.77165363  0.31086303  0.64907052    -0.39600
O672        O  0.81312203  0.31233521  0.62440961    -0.37300
O673        O  0.80235552  0.41744280  0.65773668    -0.38200
O674        O  0.76056887  0.41413938  0.63179747    -0.34300
O675        O  0.79917344  0.36313881  0.48357164    -0.35700
O676        O  0.83955855  0.36362924  0.50950925    -0.40000
C677        C  0.82375440  0.19839132  0.18397704    -0.13700
C678        C  0.83376181  0.18409453  0.15902369     0.16700
C679        C  0.85219370  0.20241554  0.13082555     0.03000
C680        C  0.86076571  0.23476619  0.12825950    -0.12200
C681        C  0.85081706  0.24936261  0.15302232    -0.03300
C682        C  0.83187182  0.23081467  0.18104502     0.02200
C683        C  0.82310510  0.14955848  0.16212828     0.09000
N684        N  0.86039205  0.18813289  0.10323122     0.65400
H685        H  0.87410625  0.24808108  0.10584635     0.18300
N686        N  0.82100167  0.24436064  0.20686638     0.75900
H687        H  0.80931216  0.18420721  0.20552691     0.09800
C688        C  0.84521019  0.13910666  0.16901660     0.03500
C689        C  0.83379365  0.10621563  0.17358733    -0.05200
C690        C  0.80047697  0.08357561  0.17355626    -0.23600
C691        C  0.77825812  0.09408064  0.16668254     0.12800
C692        C  0.78987573  0.12691308  0.16031531    -0.12700
N693        N  0.87863615  0.16161365  0.17572839     0.64400
H694        H  0.85104463  0.09876337  0.18021970     0.12300
N695        N  0.74402007  0.07215864  0.16676684     0.61100
H696        H  0.77282183  0.13498579  0.15524757     0.08500
O697        O  0.83583108  0.25281372  0.23511528    -0.40400
O698        O  0.79263168  0.23972830  0.20508622    -0.39600
O699        O  0.84252661  0.17874511  0.07699837    -0.39600
O700        O  0.88921960  0.19422843  0.10052581    -0.37300
O701        O  0.72806247  0.06975144  0.19353715    -0.38200
O702        O  0.72931505  0.06324260  0.13846831    -0.34300
O703        O  0.88708126  0.17100023  0.20619746    -0.35700
O704        O  0.89970217  0.16355413  0.15481391    -0.40000
C705        C  0.77681826  0.07309041  0.39288520    -0.13700
C706        C  0.75394357  0.08256103  0.38605439     0.16700
C707        C  0.74331973  0.08057988  0.35195046     0.03000
C708        C  0.75375279  0.06728029  0.32628357    -0.12200
C709        C  0.77485189  0.05544707  0.33339744    -0.03300
C710        C  0.78741772  0.05983163  0.36713075     0.02200
C711        C  0.74070525  0.09325193  0.41492610     0.09000
N712        N  0.72039506  0.09015106  0.34308923     0.65400
H713        H  0.74402909  0.06507774  0.30075879     0.18300
N714        N  0.81048347  0.05056018  0.37618327     0.75900
H715        H  0.78620500  0.07553726  0.41861531     0.09800
C716        C  0.72540288  0.07291515  0.44336919     0.03500
C717        C  0.71263913  0.08299447  0.46973523    -0.05200
C718        C  0.71434540  0.11332376  0.46913499    -0.23600
C719        C  0.73066456  0.13424736  0.44118373     0.12800
C720        C  0.74347765  0.12402289  0.41445851    -0.12700
N721        N  0.72115411  0.04113069  0.44535333     0.64400
H722        H  0.70033614  0.06610769  0.49053188     0.12300
N723        N  0.73554038  0.16625326  0.43988371     0.61100
H724        H  0.75597604  0.14039880  0.39335784     0.08500
O725        O  0.80090224  0.02421244  0.39197408    -0.40400
O726        O  0.84009460  0.07209704  0.37739716    -0.39600
O727        O  0.73010030  0.11656473  0.32737600    -0.39600
O728        O  0.69063216  0.06902005  0.34254305    -0.37300
O729        O  0.76225461  0.18970779  0.44988837    -0.38200
O730        O  0.71774826  0.17179329  0.42060946    -0.34300
O731        O  0.73891006  0.03623176  0.46540372    -0.35700
O732        O  0.69478141  0.01724667  0.43527965    -0.40000
C733        C  0.86841757  0.90601052  0.20218083    -0.13700
C734        C  0.86991215  0.89173002  0.23312240     0.16700
C735        C  0.85563611  0.89673853  0.26269128     0.03000
C736        C  0.84114682  0.91587220  0.26084075    -0.12200
C737        C  0.84016939  0.93062963  0.23010845    -0.03300
C738        C  0.85364302  0.92500701  0.20029902     0.02200
C739        C  0.88965334  0.87528318  0.23474933     0.09000
N740        N  0.85556206  0.88281452  0.29514119     0.65400
H741        H  0.83088924  0.91947608  0.28403204     0.18300
N742        N  0.85442921  0.93982680  0.16823534     0.75900
H743        H  0.88022962  0.90387216  0.17953013     0.09800
C744        C  0.88756848  0.85261813  0.20980601     0.03500
C745        C  0.90897401  0.84053734  0.21094346    -0.05200
C746        C  0.93209344  0.84964795  0.23710698    -0.23600
C747        C  0.93374782  0.87172284  0.26233146     0.12800
C748        C  0.91332904  0.88475322  0.26039963    -0.12700
N749        N  0.86356020  0.84094141  0.18344445     0.64400
H750        H  0.90714531  0.82351699  0.19150183     0.12300
N751        N  0.95706585  0.88256082  0.28934861     0.61100
H752        H  0.91694895  0.90332285  0.27857966     0.08500
O753        O  0.83375058  0.92319553  0.14564295    -0.40400
O754        O  0.88008041  0.96526726  0.15936564    -0.39600
O755        O  0.87435828  0.90104592  0.31833717    -0.39600
O756        O  0.83070792  0.85654315  0.30376017    -0.37300
O757        O  0.98317340  0.90929345  0.28613119    -0.38200
O758        O  0.94789129  0.87071730  0.31894575    -0.34300
O759        O  0.87224182  0.85039552  0.15301742    -0.35700
O760        O  0.83710689  0.81494353  0.18849291    -0.40000
C761        C  0.61173039  0.87390502  0.06514181    -0.13700
C762        C  0.64302908  0.90123046  0.06234504     0.16700
C763        C  0.65156358  0.91924514  0.03170548     0.03000
C764        C  0.62902682  0.91034905  0.00510952    -0.12200
C765        C  0.59703845  0.88390190  0.00803670    -0.03300
C766        C  0.58879011  0.86508798  0.03847322     0.02200
C767        C  0.66613828  0.91175140  0.09187724     0.09000
N768        N  0.68230785  0.94824585  0.02799843     0.65400
H769        H  0.63659450  0.92545627  0.98241309     0.18300
N770        N  0.55724495  0.83748909  0.04336586     0.75900
H771        H  0.60486454  0.85962977  0.08842959     0.09800
C772        C  0.66001692  0.92358086  0.12232804     0.03500
C773        C  0.68353318  0.93675270  0.14813809    -0.05200
C774        C  0.71374672  0.93843284  0.14497075    -0.23600
C775        C  0.71873992  0.92394324  0.11558709     0.12800
C776        C  0.69528579  0.91136885  0.08918961    -0.12700
N777        N  0.63065019  0.92408839  0.12689506     0.64400
H778        H  0.67829061  0.94692440  0.17029839     0.12300
N779        N  0.74655754  0.92042349  0.11253479     0.61100
H780        H  0.69985616  0.90128436  0.06649630     0.08500
O781        O  0.53738249  0.84004283  0.06256475    -0.40400
O782        O  0.55276825  0.80964101  0.03688685    -0.39600
O783        O  0.70310752  0.94829295  0.00800736    -0.39600
O784        O  0.68508919  0.97494276  0.03685609    -0.37300
O785        O  0.74449551  0.89434733  0.12257435    -0.38200
O786        O  0.76863155  0.93813594  0.09159331    -0.34300
O787        O  0.60862553  0.90281364  0.14564079    -0.35700
O788        O  0.63044899  0.94983982  0.12043381    -0.40000
C789        C  0.58538257  0.00672977  0.79030633    -0.13700
C790        C  0.57172102  0.99569411  0.75770524     0.16700
C791        C  0.54851639  0.96222328  0.75415147     0.03000
C792        C  0.53996135  0.94097176  0.78238635    -0.12200
C793        C  0.55449233  0.95166226  0.81480174    -0.03300
C794        C  0.57741268  0.98537747  0.81842523     0.02200
C795        C  0.58523549  0.01839231  0.72726392     0.09000
N796        N  0.53363582  0.94892675  0.72183349     0.65400
H797        H  0.52260011  0.91559190  0.77835832     0.18300
N798        N  0.59435098  0.99851813  0.84986962     0.75900
H799        H  0.60384627  0.03184431  0.79362787     0.09800
C800        C  0.58763603  0.04920434  0.72591675     0.03500
C801        C  0.60274046  0.07022941  0.69772371    -0.05200
C802        C  0.61597344  0.06161844  0.67012972    -0.23600
C803        C  0.61362485  0.03071497  0.67183043     0.12800
C804        C  0.59870844  0.00997272  0.69999221    -0.12700
N805        N  0.57440436  0.05956881  0.75257652     0.64400
H806        H  0.60411248  0.09348307  0.69758947     0.12300
N807        N  0.62673707  0.01974178  0.64562297     0.61100
H808        H  0.59856530  0.98734598  0.70089283     0.08500
O809        O  0.58616698  0.01467029  0.86870820    -0.40400
O810        O  0.62208781  0.00188495  0.85362218    -0.39600
O811        O  0.54335302  0.93310326  0.70459756    -0.39600
O812        O  0.50579038  0.94458406  0.71597567    -0.37300
O813        O  0.65374107  0.02172806  0.65059976    -0.38200
O814        O  0.60788710  0.00024408  0.62326010    -0.34300
O815        O  0.59337828  0.08034698  0.77394124    -0.35700
O816        O  0.54646332  0.05563226  0.74867569    -0.40000
C817        C  0.29498254  0.76076745  0.92851380    -0.13700
C818        C  0.30974362  0.77433920  0.89701924     0.16700
C819        C  0.29023293  0.76774971  0.86779883     0.03000
C820        C  0.25644914  0.74723394  0.87026298    -0.12200
C821        C  0.24131694  0.73302071  0.90179644    -0.03300
C822        C  0.26121718  0.74020085  0.93116266     0.02200
C823        C  0.34565552  0.79141879  0.89411939     0.09000
N824        N  0.30470767  0.78135811  0.83535917     0.65400
H825        H  0.24200492  0.74214414  0.84724296     0.18300
N826        N  0.24812197  0.72474682  0.96328710     0.75900
H827        H  0.30993936  0.76493867  0.95092167     0.09800
C828        C  0.36571490  0.82346768  0.90581643     0.03500
C829        C  0.39957713  0.83748408  0.90533535    -0.05200
C830        C  0.41387607  0.82022514  0.89255374    -0.23600
C831        C  0.39379763  0.78858014  0.87959466     0.12800
C832        C  0.36000534  0.77445721  0.88062703    -0.12700
N833        N  0.35211532  0.84221282  0.91790646     0.64400
H834        H  0.41471858  0.86174939  0.91528929     0.12300
N835        N  0.40720129  0.76984928  0.86671151     0.61100
H836        H  0.34486172  0.74984159  0.87159012     0.08500
O837        O  0.24564044  0.74106894  0.98731298    -0.40400
O838        O  0.24797398  0.69891776  0.97036587    -0.39600
O839        O  0.31251835  0.76557418  0.81547780    -0.39600
O840        O  0.31600145  0.81123143  0.83008177    -0.37300
O841        O  0.40869629  0.74959958  0.88621055    -0.38200
O842        O  0.40916871  0.76728273  0.83469885    -0.34300
O843        O  0.34962021  0.84508927  0.94976439    -0.35700
O844        O  0.35013502  0.86170545  0.89765927    -0.40000
C845        C  0.14188624  0.85621922  0.31431587    -0.13700
C846        C  0.14978293  0.83187658  0.31827077     0.16700
C847        C  0.12585062  0.79919579  0.31293351     0.03000
C848        C  0.09486051  0.79157456  0.30305685    -0.12200
C849        C  0.08687748  0.81582269  0.29913983    -0.03300
C850        C  0.11062405  0.84851987  0.30523695     0.02200
C851        C  0.18180344  0.84126734  0.33233985     0.09000
N852        N  0.13173024  0.77320404  0.31927714     0.65400
H853        H  0.07672676  0.76635176  0.29895332     0.18300
N854        N  0.10387080  0.87427451  0.30150733     0.75900
H855        H  0.16003773  0.88135405  0.31892528     0.09800
C856        C  0.20476154  0.83657129  0.31454141     0.03500
C857        C  0.23466878  0.84624080  0.32969305    -0.05200
C858        C  0.24245271  0.86117571  0.36204116    -0.23600
C859        C  0.21982475  0.86696197  0.37919823     0.12800
C860        C  0.18972978  0.85668078  0.36434897    -0.12700
N861        N  0.19899412  0.82350533  0.28060714     0.64400
H862        H  0.25200241  0.84229157  0.31587681     0.12300
N863        N  0.22619535  0.88191962  0.41225449     0.61100
H864        H  0.17229618  0.86059408  0.37802509     0.08500
O865        O  0.11286627  0.89120906  0.27455768    -0.40400
O866        O  0.09736986  0.88528187  0.32787476    -0.39600
O867        O  0.12593191  0.76078396  0.34884498    -0.39600
O868        O  0.13158680  0.75642412  0.29419033    -0.37300
O869        O  0.23572181  0.91178285  0.41426234    -0.38200
O870        O  0.21393445  0.86429064  0.43839664    -0.34300
O871        O  0.20821517  0.84291463  0.25560018    -0.35700
O872        O  0.19549948  0.79576350  0.27615777    -0.40000
C873        C  0.51975353  0.03143789  0.49422638    -0.13700
C874        C  0.50738297  0.00359055  0.51472329     0.16700
C875        C  0.52846354  0.99844843  0.53518853     0.03000
C876        C  0.56114345  0.02177139  0.53617275    -0.12200
C877        C  0.57362360  0.05079490  0.51731774    -0.03300
C878        C  0.55264515  0.05506599  0.49526932     0.02200
C879        C  0.47308889  0.97860523  0.51154221     0.09000
N880        N  0.51696562  0.97020330  0.55617087     0.65400
H881        H  0.57641866  0.01740991  0.55308751     0.18300
N882        N  0.56403961  0.08283297  0.47360312     0.75900
H883        H  0.50387913  0.03467213  0.47708225     0.09800
C884        C  0.44811746  0.98541701  0.51776327     0.03500
C885        C  0.41621823  0.96217827  0.50994987    -0.05200
C886        C  0.40886629  0.93215679  0.49624328    -0.23600
C887        C  0.43370096  0.92488293  0.49126208     0.12800
C888        C  0.46557817  0.94821050  0.49881868    -0.12700
N889        N  0.45468972  0.01584289  0.53157585     0.64400
H890        H  0.39726679  0.96792032  0.51365794     0.12300
N891        N  0.42769070  0.89561066  0.47487525     0.61100
H892        H  0.48470715  0.94321011  0.49289357     0.08500
O893        O  0.57089829  0.08081983  0.44275919    -0.40400
O894        O  0.55873860  0.10519817  0.48215502    -0.39600
O895        O  0.52252844  0.94813670  0.54705483    -0.39600
O896        O  0.50977057  0.97148802  0.58706150    -0.37300
O897        O  0.43161145  0.89577115  0.44286210    -0.38200
O898        O  0.42784923  0.87365639  0.49264983    -0.34300
O899        O  0.45376118  0.03633369  0.51196391    -0.35700
O900        O  0.45214218  0.01823475  0.56351791    -0.40000
C901        C  0.22558783  0.69651694  0.39215810    -0.13700
C902        C  0.21177265  0.67982870  0.42279034     0.16700
C903        C  0.21657120  0.69810801  0.45299799     0.03000
C904        C  0.23616235  0.73204239  0.45243107    -0.12200
C905        C  0.25182550  0.74883456  0.42224482    -0.03300
C906        C  0.24542112  0.73049896  0.39152327     0.02200
C907        C  0.19769108  0.64386879  0.42379085     0.09000
N908        N  0.20236149  0.68261618  0.48485299     0.65400
H909        H  0.24001019  0.74510379  0.47624934     0.18300
N910        N  0.25972028  0.74549708  0.35951694     0.75900
H911        H  0.22262455  0.68299354  0.36886467     0.09800
C912        C  0.17167691  0.62196677  0.40267956     0.03500
C913        C  0.16134668  0.58865236  0.40312061    -0.05200
C914        C  0.17659697  0.57648127  0.42408690    -0.23600
C915        C  0.20334320  0.59863182  0.44417812     0.12800
C916        C  0.21338045  0.63170971  0.44395763    -0.12700
N917        N  0.15504924  0.63287083  0.38105531     0.64400
H918        H  0.14093277  0.57216931  0.38741701     0.12300
N919        N  0.22207866  0.58842465  0.46326276     0.61100
H920        H  0.23446965  0.64824798  0.45880217     0.08500
O921        O  0.24241998  0.74881179  0.33737058    -0.40400
O922        O  0.28559873  0.74677660  0.35010199    -0.39600
O923        O  0.21989107  0.67971456  0.50704024    -0.39600
O924        O  0.17617218  0.68066082  0.49423309    -0.37300
O925        O  0.24691962  0.59038607  0.44950748    -0.38200
O926        O  0.21924335  0.58632734  0.49547898    -0.34300
O927        O  0.16044296  0.63503854  0.34918796    -0.35700
O928        O  0.12933559  0.63110925  0.39189490    -0.40000
C929        C  0.24753532  0.92908945  0.62752437    -0.13700
C930        C  0.22342855  0.91246162  0.60283187     0.16700
C931        C  0.19336350  0.91111653  0.60711547     0.03000
C932        C  0.18840807  0.92667578  0.63529782    -0.12200
C933        C  0.21284340  0.94387865  0.65975105    -0.03300
C934        C  0.24277062  0.94470985  0.65547846     0.02200
C935        C  0.23147661  0.89735204  0.57348108     0.09000
N936        N  0.16713241  0.89345947  0.58389689     0.65400
H937        H  0.16527035  0.92533317  0.63788111     0.18300
N938        N  0.26950422  0.96264843  0.67811146     0.75900
H939        H  0.27075001  0.93059659  0.62468618     0.09800
C940        C  0.23638314  0.90984453  0.53983479     0.03500
C941        C  0.25119656  0.90019304  0.51503380    -0.05200
C942        C  0.26222931  0.87850932  0.52261126    -0.23600
C943        C  0.25551485  0.86454742  0.55583245     0.12800
C944        C  0.24040595  0.87406565  0.58063768    -0.12700
N945        N  0.22923997  0.93453144  0.53090899     0.64400
H946        H  0.25557684  0.91130925  0.48991453     0.12300
N947        N  0.26534552  0.84208459  0.56573694     0.61100
H948        H  0.23710229  0.86434501  0.60638998     0.08500
O949        O  0.29180344  0.99045149  0.66910900    -0.40400
O950        O  0.27510987  0.94775682  0.70129960    -0.39600
O951        O  0.14546709  0.86504361  0.59194011    -0.39600
O952        O  0.16012319  0.90911859  0.56303911    -0.37300
O953        O  0.29094306  0.85214750  0.58303386    -0.38200
O954        O  0.24456927  0.81218885  0.56585662    -0.34300
O955        O  0.25125454  0.96385707  0.53380970    -0.35700
O956        O  0.20584847  0.92744034  0.51095100    -0.40000
C957        C  0.14943211  0.85542963  0.79780277    -0.13700
C958        C  0.15434854  0.84744083  0.83077577     0.16700
C959        C  0.16967073  0.87184926  0.85589345     0.03000
C960        C  0.18009725  0.90405471  0.84740671    -0.12200
C961        C  0.17630904  0.91197360  0.81395434    -0.03300
C962        C  0.16052493  0.88749718  0.78910778     0.02200
C963        C  0.14710025  0.81417994  0.83618242     0.09000
N964        N  0.17560552  0.86455241  0.88966380     0.65400
H965        H  0.19217975  0.92290985  0.86642460     0.18300
N966        N  0.15613167  0.89482556  0.75469923     0.75900
H967        H  0.13829568  0.83688223  0.77830323     0.09800
C968        C  0.11523737  0.78785637  0.83361157     0.03500
C969        C  0.10967602  0.75638427  0.83505517    -0.05200
C970        C  0.13545740  0.75056819  0.83897479    -0.23600
C971        C  0.16758373  0.77704298  0.83927686     0.12800
C972        C  0.17306839  0.80860594  0.83814824    -0.12700
N973        N  0.08819508  0.79262945  0.83037345     0.64400
H974        H  0.08489924  0.73638259  0.83441755     0.12300
N975        N  0.19483463  0.77259537  0.84216444     0.61100
H976        H  0.19771640  0.82886281  0.83838148     0.08500
O977        O  0.12861079  0.88968797  0.74568458    -0.40400
O978        O  0.17601109  0.89719751  0.73193820    -0.39600
O979        O  0.20376712  0.87066778  0.89730333    -0.39600
O980        O  0.15614923  0.86105919  0.91342800    -0.37300
O981        O  0.20984732  0.77311036  0.81529162    -0.38200
O982        O  0.20878580  0.77735809  0.87078711    -0.34300
O983        O  0.07482913  0.78857615  0.80148276    -0.35700
O984        O  0.07281923  0.79194934  0.85699855    -0.40000
C985        C  0.11312412  0.08959539  0.72914083    -0.13700
C986        C  0.11443302  0.10635371  0.75921018     0.16700
C987        C  0.13129455  0.10381292  0.78768875     0.03000
C988        C  0.14572226  0.08448314  0.78584900    -0.12200
C989        C  0.14382497  0.06693882  0.75605517    -0.03300
C990        C  0.12739053  0.07010108  0.72722379     0.02200
C991        C  0.09446056  0.12245255  0.76167329     0.09000
N992        N  0.13408850  0.12067531  0.81893425     0.65400
H993        H  0.15804860  0.08286152  0.80828569     0.18300
N994        N  0.12339454  0.05265680  0.69609322     0.75900
H995        H  0.09956701  0.09032851  0.70738607     0.09800
C996        C  0.09706918  0.14608681  0.73794963     0.03500
C997        C  0.07568703  0.15815926  0.73983767    -0.05200
C998        C  0.05104590  0.14702309  0.76476317    -0.23600
C999        C  0.04823642  0.12303865  0.78817956     0.12800
C1000       C  0.06982139  0.11129372  0.78647997    -0.12700
N1001       N  0.12134834  0.15839685  0.71178526     0.64400
H1002       H  0.07846742  0.17640862  0.72156043     0.12300
N1003       N  0.02241098  0.10864195  0.81259377     0.61100
H1004       H  0.06633919  0.09218585  0.80387502     0.08500
O1005       O  0.09696971  0.02667374  0.69085959    -0.40400
O1006       O  0.14139863  0.06746594  0.67084984    -0.39600
O1007       O  0.11688953  0.10496818  0.84431337    -0.39600
O1008       O  0.15926020  0.14783392  0.82397414    -0.37300
O1009       O  0.99669104  0.08285991  0.80469449    -0.38200
O1010       O  0.02841076  0.11638973  0.84379601    -0.34300
O1011       O  0.11319249  0.14857178  0.68138211    -0.35700
O1012       O  0.14724121  0.18492888  0.71686093    -0.40000
C1013       C  0.48895048  0.95903966  0.02112849    -0.13700
C1014       C  0.49340821  0.98482608  0.00017641     0.16700
C1015       C  0.50813170  0.98919748  0.96780743     0.03000
C1016       C  0.51739355  0.96748233  0.95655466    -0.12200
C1017       C  0.51230348  0.94114791  0.97696533    -0.03300
C1018       C  0.49823489  0.93712372  0.00977022     0.02200
C1019       C  0.48418319  0.00797395  0.01309878     0.09000
N1020       N  0.51315691  0.01506676  0.94551439     0.65400
H1021       H  0.52798658  0.97093066  0.93131201     0.18300
N1022       N  0.49455744  0.91206842  0.03251254     0.75900
H1023       H  0.47885614  0.95629328  0.04649195     0.09800
C1024       C  0.45207144  0.99794363  0.02270088     0.03500
C1025       C  0.44427384  0.02092301  0.03371023    -0.05200
C1026       C  0.46810512  0.05388340  0.03577749    -0.23600
C1027       C  0.50056150  0.06365408  0.02777354     0.12800
C1028       C  0.50825621  0.04068447  0.01630194    -0.12700
N1029       N  0.42695398  0.96467117  0.02099205     0.64400
H1030       H  0.41942387  0.01294374  0.04043330     0.12300
N1031       N  0.52630001  0.09620845  0.03320357     0.61100
H1032       H  0.53318292  0.04829078  0.01048548     0.08500
O1033       O  0.46680297  0.88742826  0.03658142    -0.40400
O1034       O  0.51608421  0.91857176  0.05481863    -0.39600
O1035       O  0.54141786  0.03909439  0.94204196    -0.39600
O1036       O  0.49217765  0.00976884  0.92294988    -0.37300
O1037       O  0.54201238  0.10318195  0.06092243    -0.38200
O1038       O  0.53855281  0.11479190  0.00773206    -0.34300
O1039       O  0.41808428  0.94808761  0.04819505    -0.35700
O1040       O  0.40839220  0.95494027  0.99531751    -0.40000
C1041       C  0.31981600  0.07170628  0.88392887    -0.13700
C1042       C  0.30950623  0.08121829  0.91310496     0.16700
C1043       C  0.27903958  0.07941167  0.91158509     0.03000
C1044       C  0.25899555  0.06628706  0.88238644    -0.12200
C1045       C  0.26862257  0.05519663  0.85370782    -0.03300
C1046       C  0.30020369  0.05912037  0.85460048     0.02200
C1047       C  0.33147195  0.09253938  0.94408108     0.09000
N1048       N  0.26843718  0.09206882  0.93858014     0.65400
H1049       H  0.23559406  0.06456378  0.88241078     0.18300
N1050       N  0.31294898  0.04990521  0.82638513     0.75900
H1051       H  0.34325289  0.07345654  0.88410244     0.09800
C1052       C  0.32338653  0.07453576  0.97492598     0.03500
C1053       C  0.34685839  0.08251537  0.00071817    -0.05200
C1054       C  0.37900735  0.10842433  0.99712044    -0.23600
C1055       C  0.38658941  0.12755790  0.96693720     0.12800
C1056       C  0.36313749  0.11928015  0.94091658    -0.12700
N1057       N  0.29206008  0.04664810  0.97993357     0.64400
H1058       H  0.33986192  0.06748573  0.02341343     0.12300
N1059       N  0.41803212  0.15524796  0.96170238     0.61100
H1060       H  0.37000380  0.13345947  0.91758989     0.08500
O1061       O  0.31204874  0.02308131  0.82754951    -0.40400
O1062       O  0.33266050  0.07158567  0.80618859    -0.39600
O1063       O  0.27485904  0.12107178  0.93646454    -0.39600
O1064       O  0.24488929  0.07254895  0.95702755    -0.37300
O1065       O  0.43819902  0.15258422  0.94313346    -0.38200
O1066       O  0.42230942  0.18310743  0.96763669    -0.34300
O1067       O  0.28792120  0.01908996  0.97258845    -0.35700
O1068       O  0.27295445  0.04844693  0.00097494    -0.40000
C1069       C  0.41124364  0.00026027  0.31280312    -0.13700
C1070       C  0.40575255  0.98839828  0.27901660     0.20300
C1071       C  0.39067253  0.95448331  0.27412009     0.03000
C1072       C  0.37987490  0.93339985  0.30244620    -0.12200
C1073       C  0.38324366  0.94500111  0.33625915    -0.03300
C1074       C  0.40016326  0.97912129  0.34123893     0.02200
C1075       C  0.41527127  0.01185571  0.24965848     0.09000
N1076       N  0.38613892  0.94070140  0.24062580     0.65400
H1077       H  0.36747646  0.90759289  0.29762940     0.18300
N1078       N  0.40616550  0.99298300  0.37482173     0.75900
H1079       H  0.42334599  0.02613563  0.31715764     0.09800
C1080       C  0.39186754  0.01265062  0.22839526     0.03500
C1081       C  0.40149394  0.03502767  0.20133742    -0.05200
C1082       C  0.43427818  0.05830012  0.19516011    -0.23600
C1083       C  0.45771664  0.05864946  0.21769133     0.12800
C1084       C  0.44807471  0.03532960  0.24421453    -0.12700
N1085       N  0.35801049  0.99292572  0.23554925     0.64400
H1086       H  0.38276326  0.03492077  0.18581181     0.12300
N1087       N  0.49136223  0.08208992  0.21419524     0.61100
H1088       H  0.46631586  0.03574133  0.26083921     0.08500
O1089       O  0.38818634  0.00307772  0.38633275    -0.40400
O1090       O  0.43363972  0.00312327  0.38821559    -0.39600
O1091       O  0.40714701  0.93458987  0.22912038    -0.39600
O1092       O  0.35784680  0.92539841  0.22846848    -0.37300
O1093       O  0.50374951  0.10626136  0.23406860    -0.38200
O1094       O  0.50965212  0.07386713  0.19954197    -0.34300
O1095       O  0.34503922  0.00384546  0.25559114    -0.35700
O1096       O  0.34026814  0.97094325  0.21457401    -0.40000
C1097       C  0.69027512  0.24138292  0.12343949    -0.13700
C1098       C  0.67526439  0.22614016  0.09266520     0.16700
C1099       C  0.69498644  0.23243426  0.06316676     0.03000
C1100       C  0.72870432  0.25336556  0.06525516    -0.12200
C1101       C  0.74374537  0.26862128  0.09621375    -0.03300
C1102       C  0.72382837  0.26199617  0.12569232     0.02200
C1103       C  0.63900996  0.20754635  0.09154268     0.09000
N1104       N  0.68143388  0.21793887  0.03075971     0.65400
H1105       H  0.74309164  0.25790130  0.04224578     0.18300
N1106       N  0.73677156  0.27651102  0.15823024     0.75900
H1107       H  0.67571974  0.23842727  0.14590247     0.09800
C1108       C  0.61980983  0.18447313  0.11697197     0.03500
C1109       C  0.58612444  0.17168157  0.11801524    -0.05200
C1110       C  0.57071366  0.18091875  0.09382227    -0.23600
C1111       C  0.58984061  0.20339784  0.06794631     0.12800
C1112       C  0.62343309  0.21658762  0.06737405    -0.12700
N1113       N  0.63392565  0.17352452  0.14195945     0.64400
H1114       H  0.57196979  0.15426033  0.13771326     0.12300
N1115       N  0.57599624  0.21476145  0.04305575     0.61100
H1116       H  0.63750543  0.23530839  0.04884487     0.08500
O1117       O  0.73609265  0.30160597  0.16684658    -0.40400
O1118       O  0.73972579  0.25963345  0.18121247    -0.39600
O1119       O  0.67943320  0.23523545  0.00756103    -0.39600
O1120       O  0.68112480  0.19230418  0.02229243    -0.37300
O1121       O  0.57603459  0.24078146  0.04869197    -0.38200
O1122       O  0.57186581  0.20393630  0.01281407    -0.34300
O1123       O  0.63596643  0.18284586  0.17263349    -0.35700
O1124       O  0.63501414  0.14817115  0.13584401    -0.40000
C1125       C  0.33907908  0.15709467  0.13340258    -0.13700
C1126       C  0.33995070  0.16863528  0.16646100     0.16700
C1127       C  0.36080601  0.16783703  0.19127606     0.03000
C1128       C  0.38090703  0.15563321  0.18239823    -0.12200
C1129       C  0.37976425  0.14361919  0.14928162    -0.03300
C1130       C  0.35863578  0.14452814  0.12455398     0.02200
C1131       C  0.31621798  0.17819873  0.17448919     0.09000
N1132       N  0.36114268  0.17829759  0.22567718     0.65400
H1133       H  0.39700757  0.15510145  0.20145898     0.18300
N1134       N  0.35753716  0.13405559  0.08993865     0.75900
H1135       H  0.32282288  0.15755342  0.11445187     0.09800
C1136       C  0.32400212  0.21065680  0.17222715     0.03500
C1137       C  0.29948586  0.21806825  0.17498188    -0.05200
C1138       C  0.26720845  0.19349515  0.17993945    -0.23600
C1139       C  0.25941708  0.16081757  0.18174429     0.12800
C1140       C  0.28402831  0.15350750  0.17887468    -0.12700
N1141       N  0.35650704  0.23632462  0.16672272     0.64400
H1142       H  0.30579615  0.24322081  0.17386709     0.12300
N1143       N  0.22735402  0.13506452  0.18925190     0.61100
H1144       H  0.27803422  0.12844019  0.17997341     0.08500
O1145       O  0.37310326  0.15498269  0.06711315    -0.40400
O1146       O  0.33490293  0.10637842  0.08105520    -0.39600
O1147       O  0.34616133  0.15730224  0.24861713    -0.39600
O1148       O  0.38270495  0.20651826  0.23441232    -0.37300
O1149       O  0.20957638  0.11768816  0.16501090    -0.38200
O1150       O  0.22087852  0.12415372  0.21945217    -0.34300
O1151       O  0.36470399  0.24865733  0.13720080    -0.35700
O1152       O  0.37318884  0.25225852  0.19222372    -0.40000
C1153       C  0.17416962  0.32357953  0.30967342    -0.13700
C1154       C  0.16032502  0.31496989  0.34237382     0.16700
C1155       C  0.15494499  0.28591796  0.35747258     0.03000
C1156       C  0.16469591  0.26670056  0.34015090    -0.12200
C1157       C  0.17951753  0.27585448  0.30777025    -0.03300
C1158       C  0.18381167  0.30443841  0.29231201     0.02200
C1159       C  0.15032534  0.33624264  0.35868304     0.09000
N1160       N  0.13983959  0.27558502  0.39029213     0.65400
H1161       H  0.16080329  0.24463252  0.35219496     0.18300
N1162       N  0.19688347  0.31405451  0.25861000     0.75900
H1163       H  0.17694680  0.34503830  0.29719384     0.09800
C1164       C  0.17275339  0.36951891  0.36288573     0.03500
C1165       C  0.16191516  0.39046507  0.37194185    -0.05200
C1166       C  0.12889346  0.37906034  0.37733262    -0.23600
C1167       C  0.10641130  0.34545349  0.37454732     0.12800
C1168       C  0.11733148  0.32437492  0.36494503    -0.12700
N1169       N  0.20674173  0.38265351  0.35777733     0.64400
H1170       H  0.17973048  0.41588559  0.37510638     0.12300
N1171       N  0.07247023  0.33237505  0.37987847     0.61100
H1172       H  0.09988462  0.29900362  0.36094486     0.08500
O1173       O  0.22521801  0.33795855  0.25547262    -0.40400
O1174       O  0.17769923  0.30591854  0.23350577    -0.39600
O1175       O  0.11063493  0.25302850  0.39179882    -0.39600
O1176       O  0.15745199  0.28201362  0.41652648    -0.37300
O1177       O  0.05444488  0.32727905  0.35424789    -0.38200
O1178       O  0.05988688  0.31773341  0.40758289    -0.34300
O1179       O  0.21983751  0.39887170  0.33097431    -0.35700
O1180       O  0.22428638  0.38637483  0.38346705    -0.40000
C1181       C  0.10631363  0.96947664  0.20234394    -0.13700
C1182       C  0.10697108  0.98559612  0.23285996     0.16700
C1183       C  0.09003441  0.96683582  0.26163526     0.03000
C1184       C  0.07231778  0.93307642  0.25921464    -0.12200
C1185       C  0.06984552  0.91664049  0.22827939    -0.03300
C1186       C  0.08806264  0.93537548  0.19976591     0.02200
C1187       C  0.12085349  0.02142601  0.23240350     0.09000
N1188       N  0.08764459  0.98137342  0.29271275     0.65400
H1189       H  0.05886552  0.91988457  0.28171497     0.18300
N1190       N  0.08830235  0.92060900  0.16798008     0.75900
H1191       H  0.11915722  0.98354718  0.17998665     0.09800
C1192       C  0.14621161  0.04303886  0.25423164     0.03500
C1193       C  0.15594918  0.07612203  0.25444897    -0.05200
C1194       C  0.14183279  0.08871389  0.23235056    -0.23600
C1195       C  0.11709477  0.06709212  0.20983439     0.12800
C1196       C  0.10683809  0.03394958  0.21025494    -0.12700
N1197       N  0.16375193  0.03244246  0.27483145     0.64400
H1198       H  0.17534027  0.09221313  0.27145758     0.12300
N1199       N  0.10044738  0.07772778  0.18792890     0.61100
H1200       H  0.08715376  0.01768733  0.19360966     0.08500
O1201       O  0.11196876  0.91678167  0.16126377    -0.40400
O1202       O  0.07071526  0.92025014  0.14371618    -0.39600
O1203       O  0.06405173  0.98596588  0.29633502    -0.39600
O1204       O  0.10141137  0.97902206  0.31920727    -0.37300
O1205       O  0.10807364  0.08256181  0.15659046    -0.38200
O1206       O  0.07307097  0.07290652  0.19720868    -0.34300
O1207       O  0.18833306  0.03312509  0.26201570    -0.35700
O1208       O  0.16147388  0.03294079  0.30704369    -0.40000
C1209       C  0.96094688  0.08817975  0.26283109    -0.13700
C1210       C  0.97315738  0.11449786  0.24000145     0.16700
C1211       C  0.95114404  0.11784660  0.21870851     0.03000
C1212       C  0.91793589  0.09489486  0.22014747    -0.12200
C1213       C  0.90590098  0.06843632  0.24259191    -0.03300
C1214       C  0.92773532  0.06519330  0.26425879     0.02200
C1215       C  0.00899322  0.13506869  0.23573030     0.09000
N1216       N  0.96198290  0.14435544  0.19538577     0.65400
H1217       H  0.90145635  0.09769080  0.20344566     0.18300
N1218       N  0.91714194  0.03725062  0.28553386     0.75900
H1219       H  0.97750532  0.08440209  0.27834019     0.09800
C1220       C  0.02972767  0.15072312  0.26381215     0.03500
C1221       C  0.06329075  0.16458837  0.26004475    -0.05200
C1222       C  0.07723328  0.16344434  0.22867086    -0.23600
C1223       C  0.05660383  0.14935126  0.20004105     0.12800
C1224       C  0.02290924  0.13524608  0.20391395    -0.12700
N1225       N  0.01720254  0.15255722  0.29651666     0.64400
H1226       H  0.07856888  0.17572769  0.28228739     0.12300
N1227       N  0.06896461  0.14712653  0.16740896     0.61100
H1228       H  0.00738519  0.12274207  0.18222052     0.08500
O1229       O  0.91596451  0.04012444  0.31760158    -0.40400
O1230       O  0.91756525  0.01290058  0.27361871    -0.39600
O1231       O  0.96248376  0.13918294  0.16370388    -0.39600
O1232       O  0.96171904  0.16943741  0.20497925    -0.37300
O1233       O  0.06835341  0.12123856  0.15945561    -0.38200
O1234       O  0.07136834  0.16631717  0.14388044    -0.34300
O1235       O  0.01705026  0.13492895  0.32066754    -0.35700
O1236       O  0.01556515  0.17744344  0.30364495    -0.40000
C1237       C  0.33204718  0.18040464  0.60820281    -0.13700
C1238       C  0.33210548  0.17582561  0.64362330     0.16700
C1239       C  0.35497200  0.20111421  0.66447708     0.03000
C1240       C  0.37666693  0.23095899  0.64983419    -0.12200
C1241       C  0.37628073  0.23595381  0.61446927    -0.03300
C1242       C  0.35415475  0.21012168  0.59337761     0.02200
C1243       C  0.30976930  0.14371437  0.65796998     0.09000
N1244       N  0.35632396  0.19703367  0.70062248     0.65400
H1245       H  0.39353644  0.25039146  0.66630266     0.18300
N1246       N  0.35506940  0.21285232  0.55682631     0.75900
H1247       H  0.31544527  0.16059310  0.59196514     0.09800
C1248       C  0.27597289  0.13023323  0.65661065     0.03500
C1249       C  0.25573176  0.09992963  0.67114169    -0.05200
C1250       C  0.26857615  0.08248147  0.68684709    -0.23600
C1251       C  0.30250804  0.09538502  0.68647273     0.12800
C1252       C  0.32271190  0.12588860  0.67218437    -0.12700
N1253       N  0.26174991  0.14728271  0.64148137     0.64400
H1254       H  0.22985737  0.09051927  0.67088543     0.12300
N1255       N  0.31695923  0.07773699  0.69950635     0.61100
H1256       H  0.34864357  0.13563224  0.67195323     0.08500
O1257       O  0.33325297  0.21554492  0.54172877    -0.40400
O1258       O  0.37167605  0.20388116  0.53988707    -0.39600
O1259       O  0.37809215  0.19226653  0.71245902    -0.39600
O1260       O  0.34203003  0.20656576  0.72056036    -0.37300
O1261       O  0.32335171  0.06132893  0.67893431    -0.38200
O1262       O  0.33137204  0.08590379  0.72800128    -0.34300
O1263       O  0.24877483  0.13859158  0.61230532    -0.35700
O1264       O  0.25411525  0.16373101  0.66054190    -0.40000
C1265       C  0.34243480  0.27449000  0.41899233    -0.13700
C1266       C  0.33539892  0.24353062  0.40868743     0.16700
C1267       C  0.35483117  0.23134678  0.42150961     0.03000
C1268       C  0.37962879  0.24956734  0.44551949    -0.12200
C1269       C  0.38581705  0.28016939  0.45664775    -0.03300
C1270       C  0.36741276  0.29287258  0.44224526     0.02200
C1271       C  0.30963945  0.22678025  0.38210843     0.09000
N1272       N  0.34943998  0.20037077  0.41106914     0.65400
H1273       H  0.39331331  0.23934708  0.45622221     0.18300
N1274       N  0.37457659  0.32509272  0.44988994     0.75900
H1275       H  0.32878195  0.28478700  0.40834525     0.09800
C1276       C  0.27649560  0.21409519  0.38990615     0.03500
C1277       C  0.25386872  0.20718564  0.36349064    -0.05200
C1278       C  0.26356386  0.21305858  0.32893950    -0.23600
C1279       C  0.29634607  0.22332661  0.32106060     0.12800
C1280       C  0.31890276  0.23010122  0.34752203    -0.12700
N1281       N  0.26549701  0.20929359  0.42464672     0.64400
H1282       H  0.22900164  0.19907683  0.37025955     0.12300
N1283       N  0.30733883  0.22711008  0.28634181     0.61100
H1284       H  0.34411696  0.23973027  0.34103057     0.08500
O1285       O  0.35589924  0.32914312  0.46949408    -0.40400
O1286       O  0.39371804  0.34801273  0.43051391    -0.39600
O1287       O  0.36849752  0.19906085  0.38956678    -0.39600
O1288       O  0.33221624  0.17600315  0.42971501    -0.37300
O1289       O  0.32330677  0.25524287  0.27377407    -0.38200
O1290       O  0.30897543  0.20421036  0.27221459    -0.34300
O1291       O  0.26018485  0.22996303  0.43867257    -0.35700
O1292       O  0.25295723  0.18123007  0.43739328    -0.40000
C1293       C  0.61998040  0.43993471  0.53943240    -0.13700
C1294       C  0.63813522  0.43587733  0.56504057     0.16700
C1295       C  0.62144136  0.41511543  0.59292923     0.03000
C1296       C  0.58733198  0.39793481  0.59388496    -0.12200
C1297       C  0.56903897  0.40084986  0.56743303    -0.03300
C1298       C  0.58592440  0.42291050  0.54041736     0.02200
C1299       C  0.67434884  0.45462435  0.56284517     0.09000
N1300       N  0.63861494  0.40985442  0.61969175     0.65400
H1301       H  0.57514150  0.38099532  0.61463396     0.18300
N1302       N  0.56899245  0.42897800  0.51404229     0.75900
H1303       H  0.63235303  0.45664499  0.51855256     0.09800
C1304       C  0.69136552  0.45057335  0.53537402     0.03500
C1305       C  0.72540385  0.46834170  0.53457486    -0.05200
C1306       C  0.74331320  0.49074302  0.56046239    -0.23600
C1307       C  0.72617685  0.49665761  0.58642700     0.12800
C1308       C  0.69213803  0.47832243  0.58766298    -0.12700
N1309       N  0.67461746  0.42762225  0.50867701     0.64400
H1310       H  0.73787549  0.46343628  0.51429515     0.12300
N1311       N  0.74280498  0.52213922  0.61085321     0.61100
H1312       H  0.67946060  0.48299142  0.60790436     0.08500
O1313       O  0.56751053  0.41762927  0.48442766    -0.40400
O1314       O  0.56376716  0.45217654  0.51769035    -0.39600
O1315       O  0.64177367  0.42345683  0.64833861    -0.39600
O1316       O  0.64259385  0.38574045  0.61780945    -0.37300
O1317       O  0.74518788  0.51508546  0.64146063    -0.38200
O1318       O  0.74719833  0.54992545  0.60422230    -0.34300
O1319       O  0.67160367  0.43776377  0.47984433    -0.35700
O1320       O  0.67138742  0.39979495  0.51072035    -0.40000
C1321       C  0.53802027  0.24235682  0.53508322    -0.13700
C1322       C  0.53317123  0.22388499  0.56493229     0.16700
C1323       C  0.51334720  0.22534524  0.59110622     0.03000
C1324       C  0.49922727  0.24473703  0.58697752    -0.12200
C1325       C  0.50422646  0.26337853  0.55722754    -0.03300
C1326       C  0.52378192  0.26169905  0.53090831     0.02200
C1327       C  0.55110412  0.20567738  0.56908145     0.09000
N1328       N  0.50717106  0.20745375  0.62229980     0.65400
H1329       H  0.48444584  0.24543137  0.60763901     0.18300
N1330       N  0.53131196  0.28094831  0.50058937     0.75900
H1331       H  0.55421002  0.24303493  0.51532907     0.09800
C1332       C  0.55221861  0.18575907  0.54281706     0.03500
C1333       C  0.57213056  0.17217381  0.54617364    -0.05200
C1334       C  0.59114200  0.17730032  0.57557096    -0.23600
C1335       C  0.58908130  0.19610955  0.60247242     0.12800
C1336       C  0.56974602  0.21042340  0.59875392    -0.12700
N1337       N  0.53320698  0.17869847  0.51237777     0.64400
H1338       H  0.57292989  0.15778600  0.52532857     0.12300
N1339       N  0.60754444  0.20244583  0.63320194     0.61100
H1340       H  0.57048341  0.22636802  0.61864670     0.08500
O1341       O  0.51748906  0.26744112  0.47285810    -0.40400
O1342       O  0.55720626  0.30809562  0.49953701    -0.39600
O1343       O  0.52130762  0.22244419  0.64935134    -0.39600
O1344       O  0.48153630  0.18022652  0.62483265    -0.37300
O1345       O  0.59371170  0.18606063  0.65969211    -0.38200
O1346       O  0.63356921  0.22924227  0.63643102    -0.34300
O1347       O  0.54718390  0.19177548  0.48451466    -0.35700
O1348       O  0.50580643  0.15313096  0.51139255    -0.40000
C1349       C  0.40582827  0.41318667  0.77241213    -0.13700
C1350       C  0.40356892  0.42362476  0.73952846     0.16700
C1351       C  0.38970952  0.44361113  0.73644244     0.03000
C1352       C  0.37900267  0.45280663  0.76576330    -0.12200
C1353       C  0.38061309  0.44178422  0.79873377    -0.03300
C1354       C  0.39436376  0.42154339  0.80162994     0.02200
C1355       C  0.41247950  0.41012717  0.70920851     0.09000
N1356       N  0.38581394  0.45464109  0.70376953     0.65400
H1357       H  0.36820154  0.46775919  0.76235520     0.18300
N1358       N  0.39664045  0.40845344  0.83371181     0.75900
H1359       H  0.41520241  0.39695718  0.77539969     0.09800
C1360       C  0.44281471  0.41177395  0.70645048     0.03500
C1361       C  0.44847516  0.39480725  0.68028875    -0.05200
C1362       C  0.42445997  0.37567074  0.65617318    -0.23600
C1363       C  0.39419875  0.37465852  0.65866828     0.12800
C1364       C  0.38866258  0.39156853  0.68489405    -0.12700
N1365       N  0.46850320  0.43089217  0.72979268     0.64400
H1366       H  0.47189451  0.39660563  0.67904599     0.12300
N1367       N  0.36818382  0.35608903  0.63542323     0.61100
H1368       H  0.36497398  0.38904028  0.68697561     0.08500
O1369       O  0.42449541  0.41734131  0.84529411    -0.40400
O1370       O  0.37332852  0.38131309  0.84301043    -0.39600
O1371       O  0.35798238  0.44101355  0.69040223    -0.39600
O1372       O  0.40651774  0.48294537  0.69428095    -0.37300
O1373       O  0.34630043  0.32797474  0.64413431    -0.38200
O1374       O  0.36218107  0.37070296  0.61225522    -0.34300
O1375       O  0.47573677  0.41680822  0.75244835    -0.35700
O1376       O  0.48899398  0.45974641  0.72178265    -0.40000
C1377       C  0.25627778  0.34117510  0.02575120    -0.13700
C1378       C  0.24639436  0.35148763  0.05463347     0.16700
C1379       C  0.25213575  0.38367110  0.05455623     0.03000
C1380       C  0.26739917  0.40435591  0.02623585    -0.12200
C1381       C  0.27768188  0.39409533  0.99741899    -0.03300
C1382       C  0.27138546  0.36164226  0.99749245     0.02200
C1383       C  0.23356117  0.32927336  0.08539390     0.09000
N1384       N  0.24257178  0.39597034  0.08286725     0.65400
H1385       H  0.27174622  0.42883253  0.02722237     0.18300
N1386       N  0.28026989  0.34864617  0.96927223     0.75900
H1387       H  0.25337719  0.31727384  0.02547204     0.09800
C1388       C  0.20860123  0.29631471  0.08293299     0.03500
C1389       C  0.20067716  0.27526531  0.11117506    -0.05200
C1390       C  0.21738255  0.28566138  0.14248764    -0.23600
C1391       C  0.24205266  0.31892193  0.14511289     0.12800
C1392       C  0.24956688  0.34004440  0.11696156    -0.12700
N1393       N  0.19109532  0.28329139  0.05177636     0.64400
H1394       H  0.18181163  0.25025228  0.10803052     0.12300
N1395       N  0.26109356  0.33184400  0.17542023     0.61100
H1396       H  0.26943642  0.36466087  0.11934593     0.08500
O1397       O  0.25854931  0.32987684  0.94859985    -0.40400
O1398       O  0.30630337  0.34805219  0.97090986    -0.39600
O1399       O  0.26402612  0.41578906  0.10314142    -0.39600
O1400       O  0.21566203  0.39481804  0.08156623    -0.37300
O1401       O  0.28801055  0.33304038  0.17724093    -0.38200
O1402       O  0.25647633  0.35081681  0.19388259    -0.34300
O1403       O  0.19734765  0.26515187  0.03378986    -0.35700
O1404       O  0.16391318  0.28126292  0.04839529    -0.40000
C1405       C  0.13151726  0.28451382  0.83557186    -0.13700
C1406       C  0.13970724  0.31584351  0.84561430     0.16700
C1407       C  0.11542132  0.32397654  0.84944892     0.03000
C1408       C  0.08329483  0.30073279  0.84260479    -0.12200
C1409       C  0.07517776  0.26960355  0.83164839    -0.03300
C1410       C  0.09951882  0.26138490  0.82827775     0.02200
C1411       C  0.17413416  0.34016547  0.84843987     0.09000
N1412       N  0.12297397  0.35579227  0.85952754     0.65400
H1413       H  0.06479642  0.30727617  0.84490986     0.18300
N1414       N  0.09286877  0.23106641  0.81396551     0.75900
H1415       H  0.15027217  0.27856257  0.83152708     0.09800
C1416       C  0.19370453  0.33680541  0.87286333     0.03500
C1417       C  0.22675806  0.35881549  0.87322699    -0.05200
C1418       C  0.24115651  0.38434676  0.84931217    -0.23600
C1419       C  0.22161285  0.38660181  0.82360553     0.12800
C1420       C  0.18822838  0.36463403  0.82359823    -0.12700
N1421       N  0.18037735  0.31143234  0.89784550     0.64400
H1422       H  0.24091340  0.35629339  0.89327644     0.12300
N1423       N  0.23516144  0.40988477  0.79656081     0.61100
H1424       H  0.17336708  0.36613516  0.80363027     0.08500
O1425       O  0.09220199  0.20968208  0.83344190    -0.40400
O1426       O  0.09627248  0.22918448  0.78208476    -0.39600
O1427       O  0.12395536  0.37516905  0.83695971    -0.39600
O1428       O  0.11963640  0.36100175  0.89058263    -0.37300
O1429       O  0.24232138  0.40166966  0.76859976    -0.38200
O1430       O  0.23131894  0.43411832  0.79703497    -0.34300
O1431       O  0.18391161  0.28720278  0.89380976    -0.35700
O1432       O  0.17344023  0.31724600  0.92724580    -0.40000
C1433       C  0.46919205  0.70506192  0.87166747    -0.13700
C1434       C  0.45104243  0.68570978  0.89945557     0.16700
C1435       C  0.45058324  0.70129166  0.93015814     0.03000
C1436       C  0.46663380  0.73530181  0.93183537    -0.12200
C1437       C  0.48331865  0.75471556  0.90337862    -0.03300
C1438       C  0.48507659  0.73906744  0.87321975     0.02200
C1439       C  0.43324218  0.64953246  0.89584433     0.09000
N1440       N  0.43260377  0.68310503  0.95945734     0.65400
H1441       H  0.46470200  0.74645123  0.95520331     0.18300
N1442       N  0.50311338  0.75711082  0.84389342     0.75900
H1443       H  0.47105800  0.69369994  0.84845001     0.09800
C1444       C  0.41122752  0.63351819  0.86866009     0.03500
C1445       C  0.39468641  0.59955274  0.86622528    -0.05200
C1446       C  0.39901333  0.58069307  0.89075920    -0.23600
C1447       C  0.42223360  0.59667484  0.91694684     0.12800
C1448       C  0.43911481  0.63072389  0.91916524    -0.12700
N1449       N  0.40383496  0.65113642  0.84432027     0.64400
H1450       H  0.37695673  0.58781901  0.84611409     0.12300
N1451       N  0.42972176  0.57882838  0.94092526     0.61100
H1452       H  0.45692691  0.64249035  0.93918299     0.08500
O1453       O  0.48802395  0.75841789  0.81801581    -0.40400
O1454       O  0.53196109  0.76342787  0.84033742    -0.39600
O1455       O  0.44773166  0.68136050  0.98506979    -0.39600
O1456       O  0.40389341  0.67708683  0.96337544    -0.37300
O1457       O  0.45361905  0.57515075  0.93504084    -0.38200
O1458       O  0.41858867  0.57472158  0.97103240    -0.34300
O1459       O  0.41494019  0.65473676  0.81423970    -0.35700
O1460       O  0.37999893  0.65497799  0.84987370    -0.40000
C1461       C  0.17254488  0.54669674  0.87995499    -0.13700
C1462       C  0.20032207  0.55628418  0.89992181     0.16700
C1463       C  0.21372989  0.58574639  0.91802260     0.03000
C1464       C  0.19923495  0.60489050  0.91634128    -0.12200
C1465       C  0.17151773  0.59577149  0.89612526    -0.03300
C1466       C  0.15815079  0.56613384  0.87775206     0.02200
C1467       C  0.21849988  0.53864202  0.89757242     0.09000
N1468       N  0.24329320  0.59738300  0.93664114     0.65400
H1469       H  0.21044878  0.62769122  0.93022167     0.18300
N1470       N  0.12989503  0.55504893  0.85705961     0.75900
H1471       H  0.16250072  0.52444868  0.86524907     0.09800
C1472       C  0.21375560  0.51392492  0.92070267     0.03500
C1473       C  0.23509266  0.50171476  0.92049727    -0.05200
C1474       C  0.26107555  0.51341241  0.89713218    -0.23600
C1475       C  0.26505438  0.53763670  0.87337260     0.12800
C1476       C  0.24389627  0.54983487  0.87386658    -0.12700
N1477       N  0.18751949  0.50101322  0.94462502     0.64400
H1478       H  0.23129845  0.48302416  0.93865543     0.12300
N1479       N  0.29186500  0.55209883  0.85016411     0.61100
H1480       H  0.24812979  0.56918956  0.85641704     0.08500
O1481       O  0.10297336  0.53327654  0.86877362    -0.40400
O1482       O  0.13324332  0.55932185  0.82504265    -0.39600
O1483       O  0.26997941  0.61530155  0.92172309    -0.39600
O1484       O  0.24302165  0.58490253  0.96522073    -0.37300
O1485       O  0.28713053  0.54408015  0.81893861    -0.38200
O1486       O  0.31660850  0.57860416  0.85841373    -0.34300
O1487       O  0.16150688  0.47542869  0.93701345    -0.35700
O1488       O  0.19302371  0.50994469  0.97555334    -0.40000
C1489       C  0.65899017  0.86340923  0.86195825    -0.13700
C1490       C  0.65385597  0.84673156  0.83104074     0.16700
C1491       C  0.62796146  0.84128124  0.80966020     0.03000
C1492       C  0.60698108  0.85188316  0.82008696    -0.12200
C1493       C  0.61151289  0.86787928  0.85161374    -0.03300
C1494       C  0.63817343  0.87404194  0.87248183     0.02200
C1495       C  0.67428318  0.83277729  0.82405689     0.09000
N1496       N  0.62279562  0.82540626  0.77726891     0.65400
H1497       H  0.58689073  0.84721210  0.80365284     0.18300
N1498       N  0.64351355  0.88918921  0.90535562     0.75900
H1499       H  0.67857390  0.86706384  0.87869076     0.09800
C1500       C  0.70783670  0.85303281  0.81960503     0.03500
C1501       C  0.72771191  0.83968252  0.81918072    -0.05200
C1502       C  0.71456833  0.80610972  0.82224414    -0.23600
C1503       C  0.68086963  0.78570731  0.82697371     0.12800
C1504       C  0.66098578  0.79928124  0.82813421    -0.12700
N1505       N  0.72197019  0.88710984  0.81419281     0.64400
H1506       H  0.75331551  0.85551728  0.81428841     0.12300
N1507       N  0.66659297  0.75148206  0.83147479     0.61100
H1508       H  0.63532733  0.78384018  0.83292845     0.08500
O1509       O  0.63246858  0.87165420  0.93175652    -0.40400
O1510       O  0.66578386  0.91836491  0.90861820    -0.39600
O1511       O  0.59988683  0.79648989  0.77421109    -0.39600
O1512       O  0.63450792  0.84248382  0.75067038    -0.37300
O1513       O  0.66127404  0.74006324  0.86150176    -0.38200
O1514       O  0.65168822  0.73281586  0.80672732    -0.34300
O1515       O  0.73749004  0.90644183  0.83825986    -0.35700
O1516       O  0.72621576  0.89770893  0.78386602    -0.40000
C1517       C  0.83279009  0.71013737  0.65786861    -0.13700
C1518       C  0.80793684  0.67760052  0.65700163     0.16700
C1519       C  0.77750192  0.66841483  0.67135081     0.03000
C1520       C  0.77242923  0.69184901  0.68633945    -0.12200
C1521       C  0.79748351  0.72438870  0.68811079    -0.03300
C1522       C  0.82792647  0.73360109  0.67341521     0.02200
C1523       C  0.81598561  0.65341948  0.64535278     0.09000
N1524       N  0.75176610  0.63534553  0.67190663     0.65400
H1525       H  0.74885053  0.68429854  0.69724238     0.18300
N1526       N  0.85485230  0.76590729  0.67621941     0.75900
H1527       H  0.85661097  0.71706244  0.64816491     0.09800
C1528       C  0.82853111  0.65492420  0.61234181     0.03500
C1529       C  0.83986799  0.63422187  0.60387144    -0.05200
C1530       C  0.83938770  0.61214970  0.62794842    -0.23600
C1531       C  0.82668189  0.61054562  0.66098678     0.12800
C1532       C  0.81512239  0.63122968  0.66941059    -0.12700
N1533       N  0.83042908  0.67757704  0.58720314     0.64400
H1534       H  0.84905946  0.63550630  0.57823527     0.12300
N1535       N  0.82719582  0.58976504  0.68695724     0.61100
H1536       H  0.80687005  0.63099659  0.69524616     0.08500
O1537       O  0.86316719  0.78429945  0.65039010    -0.40400
O1538       O  0.87488241  0.77262188  0.70027656    -0.39600
O1539       O  0.74608544  0.61932067  0.69932162    -0.39600
O1540       O  0.72982343  0.62577534  0.64949867    -0.37300
O1541       O  0.85037941  0.60112477  0.70801930    -0.38200
O1542       O  0.80125128  0.56402549  0.69439671    -0.34300
O1543       O  0.85747481  0.70270490  0.58145230    -0.35700
O1544       O  0.80853884  0.66810197  0.56474217    -0.40000
C1545       C  0.84194720  0.96223458  0.74358295    -0.13700
C1546       C  0.86442847  0.97922557  0.76966457     0.16700
C1547       C  0.87046681  0.96155305  0.79452430     0.03000
C1548       C  0.85464924  0.92775097  0.79249432    -0.12200
C1549       C  0.83339890  0.91066697  0.76539617    -0.03300
C1550       C  0.82690764  0.92840881  0.74081058     0.02200
C1551       C  0.88167727  0.01527506  0.77004888     0.09000
N1552       N  0.89419149  0.97750544  0.82074512     0.65400
H1553       H  0.86052404  0.91502388  0.81147417     0.18300
N1554       N  0.80553940  0.91285616  0.71261677     0.75900
H1555       H  0.83639786  0.97537459  0.72482496     0.09800
C1556       C  0.89913988  0.03351901  0.74119580     0.03500
C1557       C  0.91567961  0.06731669  0.74242435    -0.05200
C1558       C  0.91587381  0.08413288  0.77216561    -0.23600
C1559       C  0.89713994  0.06577544  0.80069667     0.12800
C1560       C  0.88031385  0.03169859  0.79931551    -0.12700
N1561       N  0.90188134  0.01826536  0.71084935     0.64400
H1562       H  0.92959490  0.08033128  0.72006437     0.12300
N1563       N  0.89472263  0.08095864  0.83125336     0.61100
H1564       H  0.86613871  0.01800136  0.82126332     0.08500
O1565       O  0.81750677  0.91395081  0.68342218    -0.40400
O1566       O  0.77671858  0.90692297  0.71464765    -0.39600
O1567       O  0.88489134  0.97638476  0.85128791    -0.39600
O1568       O  0.92290535  0.98412718  0.81521699    -0.37300
O1569       O  0.87065009  0.08476219  0.83504052    -0.38200
O1570       O  0.91073847  0.08186209  0.85732627    -0.34300
O1571       O  0.88616351  0.01734843  0.68450426    -0.35700
O1572       O  0.92592029  0.01434537  0.70755288    -0.40000
C1573       C  0.02598817  0.88960783  0.78357755    -0.13700
C1574       C  0.00836789  0.88715933  0.75382574     0.16700
C1575       C  0.02580588  0.90377933  0.72405485     0.03000
C1576       C  0.05967919  0.92340543  0.72494360    -0.12200
C1577       C  0.07730275  0.92737022  0.75512227    -0.03300
C1578       C  0.06003618  0.90931416  0.78448235     0.02200
C1579       C  0.97220328  0.87161527  0.75574199     0.09000
N1580       N  0.00953428  0.90146134  0.69257016     0.65400
H1581       H  0.07208162  0.93659725  0.70203757     0.18300
N1582       N  0.07646198  0.91015566  0.81536294     0.75900
H1583       H  0.01323710  0.87730746  0.80669163     0.09800
C1584       C  0.95136031  0.83935791  0.76708991     0.03500
C1585       C  0.91774574  0.82712435  0.77016357    -0.05200
C1586       C  0.90429818  0.84638895  0.76185445    -0.23600
C1587       C  0.92515534  0.87864328  0.75107001     0.12800
C1588       C  0.95856586  0.89089935  0.74836355    -0.12700
N1589       N  0.96357203  0.81829024  0.77462319     0.64400
H1590       H  0.90206345  0.80230985  0.77827193     0.12300
N1591       N  0.91307316  0.90000634  0.74452252     0.61100
H1592       H  0.97406087  0.91601184  0.74125987     0.08500
O1593       O  0.08169783  0.88727129  0.82136429    -0.40400
O1594       O  0.07704537  0.92764662  0.83994119    -0.39600
O1595       O  0.00687499  0.92520991  0.68297497    -0.39600
O1596       O  0.00666685  0.88073574  0.67064302    -0.37300
O1597       O  0.91353153  0.91809303  0.76838253    -0.38200
O1598       O  0.91043619  0.90690020  0.71392169    -0.34300
O1599       O  0.96573660  0.81183037  0.80553293    -0.35700
O1600       O  0.96305795  0.79959369  0.75143371    -0.40000
C1601       C  0.86779365  0.67038374  0.16128281    -0.13700
C1602       C  0.84524481  0.67952186  0.17042754     0.16700
C1603       C  0.85554124  0.71018712  0.18468222     0.03000
C1604       C  0.88847954  0.73184313  0.18862266    -0.12200
C1605       C  0.91120142  0.72280378  0.17979521    -0.03300
C1606       C  0.90080200  0.69161766  0.16654918     0.02200
C1607       C  0.81104817  0.65666598  0.16452207     0.09000
N1608       N  0.83292845  0.71932651  0.19626301     0.65400
H1609       H  0.89627507  0.75532167  0.20001387     0.18300
N1610       N  0.92318890  0.68124896  0.15797420     0.75900
H1611       H  0.85966628  0.64660947  0.15053079     0.09800
C1612       C  0.79828734  0.65205736  0.13132993     0.03500
C1613       C  0.76589329  0.62963812  0.12602591    -0.05200
C1614       C  0.74586554  0.61135867  0.15335529    -0.23600
C1615       C  0.75888303  0.61508977  0.18652707     0.12800
C1616       C  0.79150334  0.63814137  0.19197390    -0.12700
N1617       N  0.81788183  0.66980731  0.10264056     0.64400
H1618       H  0.75649174  0.62624414  0.10025100     0.12300
N1619       N  0.73944269  0.59653666  0.21492132     0.61100
H1620       H  0.80164513  0.64141377  0.21735568     0.08500
O1621       O  0.93147961  0.68232483  0.12703579    -0.40400
O1622       O  0.92682745  0.66296113  0.17851304    -0.39600
O1623       O  0.82581521  0.71675547  0.22773897    -0.39600
O1624       O  0.82731329  0.73747969  0.17763776    -0.37300
O1625       O  0.72807800  0.60907921  0.23495336    -0.38200
O1626       O  0.74117469  0.57237392  0.22495349    -0.34300
O1627       O  0.82720198  0.65582554  0.08198631    -0.35700
O1628       O  0.81805150  0.69509935  0.09309741    -0.40000
C1629       C  0.77954808  0.69730907  0.90910103    -0.13700
C1630       C  0.75001757  0.66763289  0.90692103     0.16700
C1631       C  0.73084514  0.66201725  0.87734298     0.03000
C1632       C  0.74097073  0.68578870  0.85161165    -0.12200
C1633       C  0.76970003  0.71621001  0.85436558    -0.03300
C1634       C  0.78939163  0.72147536  0.88359352     0.02200
C1635       C  0.73798699  0.64567240  0.93781748     0.09000
N1636       N  0.69957256  0.63366164  0.87394151     0.65400
H1637       H  0.72496721  0.68074532  0.83002130     0.18300
N1638       N  0.81914786  0.75125897  0.88850997     0.75900
H1639       H  0.79466289  0.70228651  0.93149340     0.09800
C1640       C  0.72798085  0.61222892  0.93710252     0.03500
C1641       C  0.71459472  0.59299023  0.96666268    -0.05200
C1642       C  0.71174990  0.60629759  0.99781902    -0.23600
C1643       C  0.72430556  0.64020895  0.99913660     0.12800
C1644       C  0.73656977  0.65917175  0.96937603    -0.12700
N1645       N  0.73298566  0.59754640  0.90757794     0.64400
H1646       H  0.70623343  0.56736502  0.96501666     0.12300
N1647       N  0.72574807  0.65621541  0.03061691     0.61100
H1648       H  0.74493924  0.68481197  0.97098703     0.08500
O1649       O  0.84541660  0.75234751  0.88136496    -0.40400
O1650       O  0.81964981  0.77215601  0.90871798    -0.39600
O1651       O  0.67528298  0.63439758  0.88546064    -0.39600
O1652       O  0.69530659  0.61366092  0.85049172    -0.37300
O1653       O  0.75150388  0.66856559  0.04800443    -0.38200
O1654       O  0.70545538  0.66516939  0.03612936    -0.34300
O1655       O  0.75959725  0.59820562  0.90481064    -0.35700
O1656       O  0.70857600  0.57553422  0.89210861    -0.40000
C1657       C  0.47428081  0.49649176  0.96060982    -0.13700
C1658       C  0.47787569  0.50357687  0.99559989     0.16700
C1659       C  0.45325302  0.50517489  0.01372958     0.03000
C1660       C  0.42412808  0.49658209  0.99727105    -0.12200
C1661       C  0.41962455  0.48720224  0.96270508    -0.03300
C1662       C  0.44568460  0.48897001  0.94389069     0.02200
C1663       C  0.50853424  0.51098208  0.01151969     0.09000
N1664       N  0.45712460  0.51494776  0.04883122     0.65400
H1665       H  0.40478813  0.49642802  0.01180928     0.18300
N1666       N  0.44394748  0.48379142  0.90775115     0.75900
H1667       H  0.49391871  0.49713864  0.94615702     0.09800
C1668       C  0.51768280  0.48728136  0.01354684     0.03500
C1669       C  0.54877362  0.49604012  0.02442652    -0.05200
C1670       C  0.57111020  0.52826569  0.03308974    -0.23600
C1671       C  0.56203317  0.55210874  0.03036302     0.12800
C1672       C  0.53076703  0.54319940  0.01983201    -0.12700
N1673       N  0.49570848  0.45421906  0.00459496     0.64400
H1674       H  0.55521094  0.47745112  0.02667718     0.12300
N1675       N  0.58466067  0.58568165  0.03630240     0.61100
H1676       H  0.52422697  0.56165315  0.01684662     0.08500
O1677       O  0.44273241  0.45842207  0.89676192    -0.40400
O1678       O  0.45393295  0.50790044  0.88799173    -0.39600
O1679       O  0.46272680  0.54308056  0.05599134    -0.39600
O1680       O  0.44605172  0.49345844  0.07185781    -0.37300
O1681       O  0.60000418  0.60356384  0.01117685    -0.38200
O1682       O  0.58285721  0.59862847  0.06380352    -0.34300
O1683       O  0.49908957  0.44359421  0.97617464    -0.35700
O1684       O  0.47926026  0.43433907  0.02792899    -0.40000
C1685       C  0.77539767  0.49040738  0.11217707    -0.13700
C1686       C  0.76901737  0.46434442  0.09042776     0.16700
C1687       C  0.74262054  0.45294536  0.06745132     0.03000
C1688       C  0.72295560  0.46697947  0.06729893    -0.12200
C1689       C  0.72834984  0.49193775  0.09015268    -0.03300
C1690       C  0.75547971  0.50424047  0.11221877     0.02200
C1691       C  0.78742067  0.44697526  0.09536793     0.09000
N1692       N  0.73351842  0.42533956  0.04610691     0.65400
H1693       H  0.70209900  0.45690637  0.05049763     0.18300
N1694       N  0.76376211  0.53131113  0.13415380     0.75900
H1695       H  0.79559401  0.49961856  0.12981283     0.09800
C1696       C  0.80680223  0.44452168  0.06950600     0.03500
C1697       C  0.82064484  0.42505849  0.07476204    -0.05200
C1698       C  0.81619224  0.40797688  0.10561425    -0.23600
C1699       C  0.79887406  0.41248545  0.13240695     0.12800
C1700       C  0.78465548  0.43166410  0.12698388    -0.12700
N1701       N  0.81363332  0.46221804  0.03810911     0.64400
H1702       H  0.83467022  0.42293204  0.05415386     0.12300
N1703       N  0.79351619  0.39621886  0.16451652     0.61100
H1704       H  0.77034904  0.43370003  0.14733729     0.08500
O1705       O  0.78456900  0.55937069  0.12405255    -0.40400
O1706       O  0.75720558  0.52652596  0.16572379    -0.39600
O1707       O  0.71371239  0.39754407  0.05768931    -0.39600
O1708       O  0.73672835  0.42929357  0.01404816    -0.37300
O1709       O  0.81179143  0.41131306  0.18943579    -0.38200
O1710       O  0.76615505  0.37160300  0.17041987    -0.34300
O1711       O  0.83918983  0.48958548  0.03617000    -0.35700
O1712       O  0.80116812  0.44683509  0.01074258    -0.40000
C1713       C  0.57021553  0.36410460  0.12026714    -0.13700
C1714       C  0.54956424  0.35029696  0.09176274     0.16700
C1715       C  0.54701936  0.37142603  0.06825483     0.03000
C1716       C  0.56623191  0.40516336  0.07245379    -0.12200
C1717       C  0.58764191  0.41887489  0.10021152    -0.03300
C1718       C  0.58887438  0.39790161  0.12480347     0.02200
C1719       C  0.53026171  0.31400475  0.08859630     0.09000
N1720       N  0.52413642  0.35943950  0.04082353     0.65400
H1721       H  0.56436427  0.42083470  0.05368590     0.18300
N1722       N  0.61014828  0.41054196  0.15360587     0.75900
H1723       H  0.57226348  0.34846135  0.13896495     0.09800
C1724       C  0.53238631  0.29685630  0.05994862     0.03500
C1725       C  0.51600367  0.26278494  0.06021930    -0.05200
C1726       C  0.49827270  0.24487017  0.08894101    -0.23600
C1727       C  0.49554667  0.26189915  0.11726836     0.12800
C1728       C  0.51114603  0.29593273  0.11665488    -0.12700
N1729       N  0.55323847  0.31317370  0.03153975     0.64400
H1730       H  0.51908957  0.25041043  0.03858037     0.12300
N1731       N  0.47724431  0.24522490  0.14706692     0.61100
H1732       H  0.50900202  0.30841850  0.13875880     0.08500
O1733       O  0.63987025  0.42012590  0.14988371    -0.40400
O1734       O  0.60055105  0.41758424  0.18069529    -0.39600
O1735       O  0.49612819  0.35486740  0.04634759    -0.39600
O1736       O  0.53462843  0.36435646  0.01040648    -0.37300
O1737       O  0.49198287  0.24403149  0.17332311    -0.38200
O1738       O  0.44865776  0.23978764  0.15018938    -0.34300
O1739       O  0.58211768  0.31918312  0.03279984    -0.35700
O1740       O  0.54057059  0.31068313  0.00250768    -0.40000
C1741       C  0.53668647  0.57818844  0.28227512    -0.13700
C1742       C  0.56590194  0.57788282  0.28444078     0.16700
C1743       C  0.58569612  0.59226551  0.31347164     0.03000
C1744       C  0.57641774  0.60686604  0.33882645    -0.12200
C1745       C  0.54813838  0.60895827  0.33588703    -0.03300
C1746       C  0.52778936  0.59362789  0.30726888     0.02200
C1747       C  0.57728664  0.56727918  0.25379896     0.09000
N1748       N  0.61695950  0.59547033  0.31623784     0.65400
H1749       H  0.59284540  0.61844048  0.36005824     0.18300
N1750       N  0.49854198  0.59422589  0.30228139     0.75900
H1751       H  0.52124746  0.56753318  0.26011172     0.09800
C1752       C  0.58511870  0.54242167  0.25461271     0.03500
C1753       C  0.59785682  0.53563049  0.22523521    -0.05200
C1754       C  0.60254338  0.55260088  0.19429798    -0.23600
C1755       C  0.59242917  0.57585539  0.19298172     0.12800
C1756       C  0.58045731  0.58309728  0.22250874    -0.12700
N1757       N  0.57893403  0.52261396  0.28427133     0.64400
H1758       H  0.60452302  0.51718052  0.22694314     0.12300
N1759       N  0.59367494  0.59230056  0.16191725     0.61100
H1760       H  0.57387411  0.60163946  0.22100208     0.08500
O1761       O  0.47181437  0.56916344  0.30922913    -0.40400
O1762       O  0.49887668  0.61534404  0.28262462    -0.39600
O1763       O  0.64107930  0.62049676  0.30397617    -0.39600
O1764       O  0.62162668  0.57999771  0.33953354    -0.37300
O1765       O  0.61580977  0.62146184  0.15805785    -0.38200
O1766       O  0.56849195  0.58123098  0.14371282    -0.34300
O1767       O  0.55194820  0.49665552  0.28655686    -0.35700
O1768       O  0.60268669  0.52493293  0.30073428    -0.40000
C1769       C  0.69026981  0.79511254  0.61969955    -0.13700
C1770       C  0.66797236  0.76265607  0.61128455     0.16700
C1771       C  0.66815311  0.73790881  0.63078094     0.03000
C1772       C  0.68987391  0.74579341  0.65812032    -0.12200
C1773       C  0.71264156  0.77815013  0.66646228    -0.03300
C1774       C  0.71252586  0.80306523  0.64688838     0.02200
C1775       C  0.64651888  0.75479963  0.58059867     0.09000
N1776       N  0.64831992  0.70454305  0.62154005     0.65400
H1777       H  0.68984985  0.72616101  0.67195834     0.18300
N1778       N  0.73396351  0.83649079  0.65471700     0.75900
H1779       H  0.69059938  0.81440521  0.60487173     0.09800
C1780       C  0.61255458  0.74009387  0.58349215     0.03500
C1781       C  0.59302113  0.72877293  0.55411004    -0.05200
C1782       C  0.60642259  0.73189501  0.52115229    -0.23600
C1783       C  0.64070952  0.74979045  0.51804306     0.12800
C1784       C  0.66025822  0.76069198  0.54763845    -0.12700
N1785       N  0.59729260  0.73676524  0.61597270     0.64400
H1786       H  0.56702697  0.71630302  0.55749860     0.12300
N1787       N  0.65629397  0.75748730  0.48527718     0.61100
H1788       H  0.68632084  0.77304985  0.54487858     0.08500
O1789       O  0.72325786  0.85154842  0.67176046    -0.40400
O1790       O  0.75927594  0.85246019  0.63692352    -0.39600
O1791       O  0.66010911  0.69187294  0.60226550    -0.39600
O1792       O  0.62423240  0.68632552  0.64008546    -0.37300
O1793       O  0.66515063  0.78493563  0.47234522    -0.38200
O1794       O  0.66905945  0.74159243  0.47459262    -0.34300
O1795       O  0.59081502  0.75821493  0.62502038    -0.35700
O1796       O  0.58176263  0.70904396  0.62953196    -0.40000
C1797       C  0.69593365  0.86481780  0.33857774    -0.13700
C1798       C  0.66936332  0.84669690  0.31690635     0.16700
C1799       C  0.66492546  0.86161666  0.28796429     0.03000
C1800       C  0.68722986  0.89386913  0.28094398    -0.12200
C1801       C  0.71482814  0.91151849  0.30144773    -0.03300
C1802       C  0.71920740  0.89670677  0.33056842     0.02200
C1803       C  0.64555112  0.81309970  0.32642161     0.09000
N1804       N  0.63895612  0.84410489  0.26431984     0.65400
H1805       H  0.68368906  0.90451149  0.25808902     0.18300
N1806       N  0.74712567  0.91322274  0.35201137     0.75900
H1807       H  0.69874857  0.85421449  0.36179164     0.09800
C1808       C  0.65516443  0.79069462  0.33564844     0.03500
C1809       C  0.63235295  0.76062359  0.34879806    -0.05200
C1810       C  0.59987583  0.75217230  0.35283066    -0.23600
C1811       C  0.58992747  0.77393597  0.34193993     0.12800
C1812       C  0.61291517  0.80431094  0.32939324    -0.12700
N1813       N  0.68798698  0.79806531  0.33235823     0.64400
H1814       H  0.64028907  0.74401608  0.35638825     0.12300
N1815       N  0.55713493  0.76660536  0.34513948     0.61100
H1816       H  0.60539218  0.82156438  0.32349196     0.08500
O1817       O  0.74499111  0.92564061  0.37975891    -0.40400
O1818       O  0.76992768  0.90743747  0.34824346    -0.39600
O1819       O  0.61588992  0.84974941  0.26366797    -0.39600
O1820       O  0.64388627  0.83134959  0.23839279    -0.37300
O1821       O  0.54887266  0.77614911  0.37140059    -0.38200
O1822       O  0.53976387  0.75912418  0.31858299    -0.34300
O1823       O  0.70494412  0.80392491  0.35906301    -0.35700
O1824       O  0.69632545  0.78941095  0.30549092    -0.40000
C1825       C  0.53624995  0.54228703  0.49261752    -0.13700
C1826       C  0.50296081  0.52021455  0.49494587     0.16700
C1827       C  0.48100015  0.53155145  0.49612911     0.03000
C1828       C  0.49243388  0.56457300  0.49356566    -0.12200
C1829       C  0.52562586  0.58685696  0.48928420    -0.03300
C1830       C  0.54781913  0.57553706  0.48979987     0.02200
C1831       C  0.49167805  0.48581557  0.50039018     0.09000
N1832       N  0.44681008  0.50974590  0.49841742     0.65400
H1833       H  0.47484881  0.57242677  0.49291200     0.18300
N1834       N  0.58204169  0.59723668  0.48809574     0.75900
H1835       H  0.55325285  0.53371165  0.49336198     0.09800
C1836       C  0.49518132  0.46648893  0.47540201     0.03500
C1837       C  0.48315070  0.43364471  0.48197126    -0.05200
C1838       C  0.46838771  0.42005526  0.51348428    -0.23600
C1839       C  0.46688543  0.44015259  0.53924793     0.12800
C1840       C  0.47801459  0.47258664  0.53221254    -0.12700
N1841       N  0.51079568  0.47967694  0.44333924     0.64400
H1842       H  0.48533314  0.41880988  0.46239213     0.12300
N1843       N  0.45628343  0.42879188  0.57341034     0.61100
H1844       H  0.47675069  0.48778106  0.55202661     0.08500
O1845       O  0.59672132  0.59965262  0.46034035    -0.40400
O1846       O  0.59801425  0.60615181  0.51565598    -0.39600
O1847       O  0.43257607  0.50706182  0.52655961    -0.39600
O1848       O  0.43036085  0.50064603  0.47117938    -0.37300
O1849       O  0.47697062  0.43198915  0.59546941    -0.38200
O1850       O  0.42911213  0.42404684  0.58337468    -0.34300
O1851       O  0.53971766  0.48639406  0.43923606    -0.35700
O1852       O  0.49362308  0.47580760  0.41727273    -0.40000
C1853       C  0.46752855  0.77322363  0.45675910    -0.13700
C1854       C  0.45246219  0.77442823  0.42633874     0.16700
C1855       C  0.45615196  0.75952711  0.39671802     0.03000
C1856       C  0.47171392  0.74146811  0.39883248    -0.12200
C1857       C  0.48418921  0.73759588  0.42996829    -0.03300
C1858       C  0.48337130  0.75524854  0.45888391     0.02200
C1859       C  0.43230291  0.79029915  0.42631041     0.09000
N1860       N  0.44291018  0.76095117  0.36441475     0.65400
H1861       H  0.47289697  0.72940658  0.37581250     0.18300
N1862       N  0.49819858  0.75532670  0.49067773     0.75900
H1863       H  0.46670763  0.78606828  0.47926605     0.09800
C1864       C  0.40739664  0.78191979  0.45069836     0.03500
C1865       C  0.38787278  0.79590080  0.44905914    -0.05200
C1866       C  0.39188931  0.81821530  0.42326968    -0.23600
C1867       C  0.41762117  0.82756133  0.39952531     0.12800
C1868       C  0.43755267  0.81379142  0.40148064    -0.12700
N1869       N  0.40033306  0.75801788  0.47651073     0.64400
H1870       H  0.36860266  0.78819977  0.46776149     0.12300
N1871       N  0.42434290  0.85113228  0.37345914     0.61100
H1872       H  0.45726879  0.82156105  0.38337954     0.08500
O1873       O  0.48046814  0.73826634  0.51513929    -0.40400
O1874       O  0.52617817  0.77873556  0.49721634    -0.39600
O1875       O  0.46181205  0.77967632  0.34154010    -0.39600
O1876       O  0.41564909  0.73758564  0.35564563    -0.37300
O1877       O  0.44770255  0.87966381  0.37763757    -0.38200
O1878       O  0.41414249  0.84148370  0.34346339    -0.34300
O1879       O  0.40849125  0.76710171  0.50711015    -0.35700
O1880       O  0.37863449  0.72902286  0.47078504    -0.40000
C1881       C  0.29285553  0.52392230  0.46369126    -0.13700
C1882       C  0.30901425  0.53731620  0.43252734     0.16700
C1883       C  0.29001068  0.53145347  0.40279159     0.03000
C1884       C  0.25608431  0.51479422  0.40519455    -0.12200
C1885       C  0.23973031  0.50351135  0.43682891    -0.03300
C1886       C  0.25876737  0.50731220  0.46616337     0.02200
C1887       C  0.34538419  0.55775529  0.43177588     0.09000
N1888       N  0.30455918  0.54367238  0.37002915     0.65400
H1889       H  0.24259674  0.51196278  0.38193028     0.18300
N1890       N  0.24426260  0.49482285  0.49880686     0.75900
H1891       H  0.30682595  0.52665478  0.48652778     0.09800
C1892       C  0.36236558  0.58410197  0.45456175     0.03500
C1893       C  0.39621626  0.60315257  0.45299622    -0.05200
C1894       C  0.41443207  0.59719698  0.42883500    -0.23600
C1895       C  0.39761611  0.57036957  0.40643291     0.12800
C1896       C  0.36355029  0.55096668  0.40826135    -0.12700
N1897       N  0.34566031  0.59297130  0.47866993     0.64400
H1898       H  0.40820693  0.62362360  0.47028187     0.12300
N1899       N  0.41452155  0.56170724  0.38236218     0.61100
H1900       H  0.35129139  0.53026733  0.39135809     0.08500
O1901       O  0.24474805  0.51415985  0.52118084    -0.40400
O1902       O  0.23991515  0.46764517  0.50819076    -0.39600
O1903       O  0.30452981  0.52421622  0.34808856    -0.39600
O1904       O  0.30876081  0.57065053  0.36010468    -0.37300
O1905       O  0.42173188  0.54065457  0.39078218    -0.38200
O1906       O  0.41371246  0.56763096  0.35096633    -0.34300
O1907       O  0.34637236  0.58690376  0.51004399    -0.35700
O1908       O  0.33876364  0.61426210  0.47033850    -0.40000
loop_ 
_geom_bond_atom_site_label_1 
_geom_bond_atom_site_label_2 
_geom_bond_distance 
_geom_bond_site_symmetry_2 
_ccdc_geom_bond_type 
Fe1          O17   2.045       .  S
Fe1           O7   2.078       .  S
Fe1          O14   2.061       .  S
Fe1           O6   2.062       .  S
Fe1          O12   1.971       .  S
Fe2           O5   2.092       .  S
Fe2           O9   2.057       .  S
Fe2          O13   2.100       .  S
Fe2          O18   2.079       .  S
Fe2          O12   1.975       .  S
Fe3          O21   2.074       .  S
Fe3           O8   2.088       .  S
Fe3          O15   2.075       .  S
Fe3           O4   2.054       .  S
Fe3          O12   1.962       .  S
O4           C11   1.276       .  A
O5           C19   1.279       .  A
O6           C11   1.272       .  A
O7           C10   1.265       .  A
O8           C20   1.273       .  A
O9           C22   1.270       .  A
C10          O15   1.268       .  A
C10        C1782   1.504       .  S
C11        C1829   1.473       .  S
O13          C16   1.272       .  A
O14          C16   1.267       .  A
C16        C1745   1.509       .  S
O17          C22   1.272       .  A
O18          C20   1.268       .  A
C19          O21   1.272       .  A
C19        C1857   1.501       .  S
C20        C1894   1.499       .  S
C22        C1810   1.467       .  S
Fe23         O39   2.018       .  S
Fe23         O29   2.073       .  S
Fe23         O36   2.063       .  S
Fe23         O28   2.032       .  S
Fe23         O34   1.976       .  S
Fe24         O27   2.086       .  S
Fe24         O31   2.071       .  S
Fe24         O35   2.091       .  S
Fe24         O40   2.085       .  S
Fe24         O34   1.984       .  S
Fe25         O43   2.084       .  S
Fe25         O30   2.058       .  S
Fe25         O37   2.076       .  S
Fe25         O26   2.081       .  S
Fe25         O34   1.971       .  S
O26          C33   1.277       .  A
O27          C41   1.273       .  A
O28          C33   1.267       .  A
O29          C32   1.266       .  A
O30          C42   1.268       .  A
O31          C44   1.271       .  A
C32          O37   1.267       .  A
C32        C1642   1.503   1_554  S
C33        C1670   1.468       .  S
O35          C38   1.273       .  A
O36          C38   1.264       .  A
C38        C1754   1.503       .  S
O39          C44   1.267       .  A
O40          C42   1.273       .  A
C41          O43   1.274       .  A
C41        C1689   1.493       .  S
C42        C1717   1.491       .  S
C44        C1614   1.457       .  S
Fe45         O61   2.042       .  S
Fe45         O51   2.067       .  S
Fe45         O58   2.064       .  S
Fe45         O50   2.035       .  S
Fe45         O56   1.964       .  S
Fe46         O49   2.078       .  S
Fe46         O53   2.070       .  S
Fe46         O57   2.102       .  S
Fe46         O62   2.083       .  S
Fe46         O56   1.970       .  S
Fe47         O65   2.062       .  S
Fe47         O52   2.083       .  S
Fe47         O59   2.091       .  S
Fe47         O48   2.072       .  S
Fe47         O56   1.980       .  S
O48          C55   1.276       .  A
O49          C63   1.273       .  A
O50          C55   1.273       .  A
O51          C54   1.266       .  A
O52          C64   1.272       .  A
O53          C66   1.278       .  A
C54          O59   1.266       .  A
C54        C1773   1.501       .  S
C55        C1521   1.467       .  S
O57          C60   1.269       .  A
O58          C60   1.265       .  A
C60        C1633   1.514       .  S
O61          C66   1.270       .  A
O62          C64   1.274       .  A
C63          O65   1.268       .  A
C63        C1549   1.489       .  S
C64        C1586   1.485       .  S
C66        C1502   1.461       .  S
Fe67         O83   2.051       .  S
Fe67         O73   2.042       .  S
Fe67         O80   2.038       .  S
Fe67         O72   2.073       .  S
Fe67         O78   1.966       .  S
Fe68         O71   2.092       .  S
Fe68         O75   2.095       .  S
Fe68         O79   2.088       .  S
Fe68         O84   2.074       .  S
Fe68         O78   1.968       .  S
Fe69         O87   2.077       .  S
Fe69         O74   2.088       .  S
Fe69         O81   2.070       .  S
Fe69         O70   2.101       .  S
Fe69         O78   1.967       .  S
O70          C77   1.272       .  A
O71          C85   1.281       .  A
O72          C77   1.264       .  A
O73          C76   1.271       .  A
O74          C86   1.273       .  A
O75          C88   1.270       .  A
C76          O81   1.275       .  A
C76        C1661   1.466       .  S
C77        C1381   1.513       .  S
O79          C82   1.282       .  A
O80          C82   1.277       .  A
C82        C1418   1.476       .  S
O83          C88   1.257       .  A
O84          C86   1.267       .  A
C85          O87   1.274       .  A
C85        C1446   1.488       .  S
C86        C1474   1.496       .  S
C88        C1353   1.507       .  S
Fe89        O105   2.067       .  S
Fe89         O95   2.022       .  S
Fe89        O102   2.038       .  S
Fe89         O94   2.051       .  S
Fe89        O100   1.962       .  S
Fe90         O93   2.096       .  S
Fe90         O97   2.111       .  S
Fe90        O101   2.094       .  S
Fe90        O106   2.082       .  S
Fe90        O100   1.944       .  S
Fe91        O109   2.071       .  S
Fe91         O96   2.098       .  S
Fe91        O103   2.091       .  S
Fe91         O92   2.102       .  S
Fe91        O100   1.958       .  S
O92          C99   1.269       .  A
O93         C107   1.277       .  A
O94          C99   1.258       .  A
O95          C98   1.272       .  A
O96         C108   1.278       .  A
O97         C110   1.274       .  A
C98         O103   1.283       .  A
C98        C1838   1.466       .  S
C99        C1269   1.493       .  S
O101        C104   1.284       .  A
O102        C104   1.273       .  A
C104       C1241   1.469       .  S
O105        C110   1.260       .  A
O106        C108   1.276       .  A
C107        O109   1.269       .  A
C107       C1297   1.498       .  S
C108       C1325   1.504       .  S
C110       C1362   1.514       .  S
Fe111       O127   2.060       .  S
Fe111       O117   2.058       .  S
Fe111       O124   2.042       .  S
Fe111       O116   2.067       .  S
Fe111       O122   1.974       .  S
Fe112       O115   2.078       .  S
Fe112       O119   2.105       .  S
Fe112       O123   2.059       .  S
Fe112       O128   2.091       .  S
Fe112       O122   1.973       .  S
Fe113       O131   2.084       .  S
Fe113       O118   2.066       .  S
Fe113       O125   2.057       .  S
Fe113       O114   2.097       .  S
Fe113       O122   1.958       .  S
O114        C121   1.271       .  A
O115        C129   1.276       .  A
O116        C121   1.263       .  A
O117        C120   1.272       .  A
O118        C130   1.269       .  A
O119        C132   1.275       .  A
C120        O125   1.273       .  A
C120       C1157   1.469       .  S
C121       C1278   1.500       .  S
O123        C126   1.274       .  A
O124        C126   1.273       .  A
C126       C1138   1.460       .  S
O127        C132   1.261       .  A
O128        C130   1.270       .  A
C129        O131   1.277       .  A
C129       C1222   1.492       .  S
C130       C1194   1.492       .  S
C132       C1390   1.512       .  S
Fe133       O149   2.038       .  S
Fe133       O139   2.070       .  S
Fe133       O146   2.082       .  S
Fe133       O138   2.025       .  S
Fe133       O144   1.963       .  S
Fe134       O137   2.050       .  S
Fe134       O141   2.087       .  S
Fe134       O145   2.091       .  S
Fe134       O150   2.078       .  S
Fe134       O144   1.968       .  S
Fe135       O153   2.091       .  S
Fe135       O140   2.078       .  S
Fe135       O147   2.108       .  S
Fe135       O136   2.082       .  S
Fe135       O144   1.976       .  S
O136        C143   1.279       .  A
O137        C151   1.265       .  A
O138        C143   1.269       .  A
O139        C142   1.266       .  A
O140        C152   1.271       .  A
O141        C154   1.280       .  A
C142        O147   1.270       .  A
C142       C1082   1.511       .  S
C143       C1129   1.463       .  S
O145        C148   1.266       .  A
O146        C148   1.267       .  A
C148       C1054   1.517   1_554  S
O149        C154   1.273       .  A
O150        C152   1.275       .  A
C151        O153   1.277       .  A
C151       C1110   1.488       .  S
C152       C1726   1.493       .  S
C154       C1026   1.470       .  S
Fe155       O171   2.047   1_565  S
Fe155       O161   2.062   1_565  S
Fe155       O168   2.052       .  S
Fe155       O160   2.037       .  S
Fe155       O166   1.975       .  S
Fe156       O159   2.090   1_565  S
Fe156       O163   2.074   1_565  S
Fe156       O167   2.091       .  S
Fe156       O172   2.079       .  S
Fe156       O166   1.963       .  S
Fe157       O175   2.092       .  S
Fe157       O162   2.093   1_545  S
Fe157       O169   2.113       .  S
Fe157       O158   2.067   1_545  S
Fe157       O166   1.975   1_545  S
O158        C165   1.274       .  A
O159        C173   1.273       .  A
O160        C165   1.271       .  A
O161        C164   1.262       .  A
O162        C174   1.273       .  A
O163        C176   1.281       .  A
C164        O169   1.275       .  A
C164       C1045   1.517       .  S
C165        C961   1.449       .  S
O167        C170   1.269       .  A
O168        C170   1.259       .  A
C170        C933   1.504       .  S
O171        C176   1.274       .  A
O172        C174   1.274       .  A
C173        O175   1.279       .  A
C173        C989   1.511       .  S
C174       C1577   1.500       .  S
C176       C1250   1.472       .  S
Fe177       O193   2.048       .  S
Fe177       O183   2.070       .  S
Fe177       O190   2.053       .  S
Fe177       O182   2.056       .  S
Fe177       O188   1.970       .  S
Fe178       O181   2.083       .  S
Fe178       O185   2.059       .  S
Fe178       O189   2.114       .  S
Fe178       O194   2.075       .  S
Fe178       O188   1.968       .  S
Fe179       O197   2.083       .  S
Fe179       O184   2.091       .  S
Fe179       O191   2.081       .  S
Fe179       O180   2.059       .  S
Fe179       O188   1.966       .  S
O180        C187   1.277       .  A
O181        C195   1.275       .  A
O182        C187   1.273       .  A
O183        C186   1.263       .  A
O184        C196   1.272       .  A
O185        C198   1.272       .  A
C186        O191   1.269       .  A
C186       C1073   1.504       .  S
C187        C858   1.469       .  S
O189        C192   1.272       .  A
O190        C192   1.263       .  A
C192        C942   1.512       .  S
O193        C198   1.273       .  A
O194        C196   1.274       .  A
C195        O197   1.272       .  A
C195       C1866   1.500       .  S
C196        C905   1.504       .  S
C198        C886   1.457       .  S
Fe199       O215   2.047       .  S
Fe199       O205   2.042       .  S
Fe199       O212   2.038       .  S
Fe199       O204   2.075       .  S
Fe199       O210   1.973       .  S
Fe200       O203   2.078       .  S
Fe200       O207   2.107       .  S
Fe200       O211   2.083       .  S
Fe200       O216   2.085       .  S
Fe200       O210   1.985       .  S
Fe201       O219   2.081       .  S
Fe201       O206   2.072       .  S
Fe201       O213   2.054       .  S
Fe201       O202   2.103       .  S
Fe201       O210   1.979       .  S
O202        C209   1.274       .  A
O203        C217   1.274       .  A
O204        C209   1.265       .  A
O205        C208   1.268       .  A
O206        C218   1.273       .  A
O207        C220   1.271       .  A
C208        O213   1.272       .  A
C208       C1493   1.467       .  S
C209        C793   1.518       .  S
O211        C214   1.276       .  A
O212        C214   1.271       .  A
C214       C1017   1.471       .  S
O215        C220   1.263       .  A
O216        C218   1.274       .  A
C217        O219   1.271       .  A
C217       C1437   1.497       .  S
C218        C830   1.478       .  S
C220        C765   1.509   1_556  S
Fe221       O237   2.054   1_565  S
Fe221       O227   2.051   1_565  S
Fe221       O234   2.040       .  S
Fe221       O226   2.055       .  S
Fe221       O232   1.972       .  S
Fe222       O225   2.058   1_565  S
Fe222       O229   2.111   1_565  S
Fe222       O233   2.054       .  S
Fe222       O238   2.084       .  S
Fe222       O232   1.985       .  S
Fe223       O241   2.091   1_565  S
Fe223       O228   2.071       .  S
Fe223       O235   2.059   1_565  S
Fe223       O224   2.112       .  S
Fe223       O232   1.981       .  S
O224        C231   1.274       .  A
O225        C239   1.270       .  A
O226        C231   1.266       .  A
O227        C230   1.267       .  A
O228        C240   1.270       .  A
O229        C242   1.273       .  A
C230        O235   1.272       .  A
C230        C690   1.467       .  S
C231        C774   1.509       .  S
O233        C236   1.269       .  A
O234        C236   1.269       .  A
C236       C1801   1.465       .  S
O237        C242   1.265       .  A
O238        C240   1.275       .  A
C239        O241   1.276       .  A
C239       C1213   1.479       .  S
C240        C737   1.497       .  S
C242        C709   1.509       .  S
Fe243       O259   2.039       .  S
Fe243       O249   2.034       .  S
Fe243       O256   2.027       .  S
Fe243       O248   2.067       .  S
Fe243       O254   1.971       .  S
Fe244       O247   2.083       .  S
Fe244       O251   2.111       .  S
Fe244       O255   2.083       .  S
Fe244       O260   2.077       .  S
Fe244       O254   1.987       .  S
Fe245       O263   2.079       .  S
Fe245       O250   2.090       .  S
Fe245       O257   2.076       .  S
Fe245       O246   2.114       .  S
Fe245       O254   1.971       .  S
O246        C253   1.275       .  A
O247        C261   1.274       .  A
O248        C253   1.263       .  A
O249        C252   1.267       .  A
O250        C262   1.274       .  A
O251        C264   1.271       .  A
C252        O257   1.277       .  A
C252        C625   1.475       .  S
C253        C802   1.518       .  S
O255        C258   1.276       .  A
O256        C258   1.271       .  A
C258        C877   1.478       .  S
O259        C264   1.261       .  A
O260        C262   1.273       .  A
C261        O263   1.276       .  A
C261        C653   1.495       .  S
C262       C1334   1.501       .  S
C264        C718   1.505       .  S
Fe265       O281   2.046       .  S
Fe265       O271   2.057       .  S
Fe265       O278   2.052       .  S
Fe265       O270   2.057       .  S
Fe265       O276   1.983       .  S
Fe266       O269   2.083       .  S
Fe266       O273   2.084       .  S
Fe266       O277   2.096       .  S
Fe266       O282   2.100       .  S
Fe266       O276   1.976       .  S
Fe267       O285   2.082       .  S
Fe267       O272   2.072       .  S
Fe267       O279   2.075       .  S
Fe267       O268   2.058       .  S
Fe267       O276   1.962       .  S
O268        C275   1.277       .  A
O269        C283   1.272       .  A
O270        C275   1.272       .  A
O271        C274   1.261       .  A
O272        C284   1.271       .  A
O273        C286   1.278       .  A
C274        O279   1.265       .  A
C274        C597   1.484       .  S
C275       C1166   1.470       .  S
O277        C280   1.272       .  A
O278        C280   1.261       .  A
C280        C569   1.505       .  S
O281        C286   1.271       .  A
O282        C284   1.275       .  A
C283        O285   1.275       .  A
C283        C914   1.491       .  S
C284       C1885   1.508       .  S
C286        C541   1.471       .  S
Fe287       O303   2.048       .  S
Fe287       O293   2.049       .  S
Fe287       O300   2.073       .  S
Fe287       O292   2.040       .  S
Fe287       O298   1.968       .  S
Fe288       O291   2.079       .  S
Fe288       O295   2.073       .  S
Fe288       O299   2.104       .  S
Fe288       O304   2.081       .  S
Fe288       O298   1.966       .  S
Fe289       O307   2.096       .  S
Fe289       O294   2.062       .  S
Fe289       O301   2.089       .  S
Fe289       O290   2.077       .  S
Fe289       O298   1.982       .  S
O290        C297   1.277       .  A
O291        C305   1.277       .  A
O292        C297   1.274       .  A
O293        C296   1.261       .  A
O294        C306   1.265       .  A
O295        C308   1.274       .  A
C296        O301   1.268       .  A
C296        C606   1.495       .  S
C297        C681   1.470       .  S
O299        C302   1.274       .  A
O300        C302   1.265       .  A
C302        C494   1.515       .  S
O303        C308   1.269       .  A
O304        C306   1.272       .  A
C305        O307   1.280       .  A
C305       C1698   1.498       .  S
C306       C1101   1.498       .  S
C308        C522   1.473       .  S
Fe309       O325   2.052   1_655  S
Fe309       O315   2.056   1_655  S
Fe309       O322   2.065       .  S
Fe309       O314   2.058       .  S
Fe309       O320   1.961       .  S
Fe310       O313   2.092   1_655  S
Fe310       O317   2.048   1_655  S
Fe310       O321   2.107       .  S
Fe310       O326   2.065       .  S
Fe310       O320   1.983       .  S
Fe311       O329   2.077   1_655  S
Fe311       O316   2.085       .  S
Fe311       O323   2.110   1_655  S
Fe311       O312   2.059       .  S
Fe311       O320   1.963       .  S
O312        C319   1.273       .  A
O313        C327   1.273       .  A
O314        C319   1.271       .  A
O315        C318   1.265       .  A
O316        C328   1.277       .  A
O317        C330   1.271       .  A
C318        O323   1.272       .  A
C318        C578   1.511       .  S
C319        C634   1.453       .  S
O321        C324   1.271       .  A
O322        C324   1.267       .  A
C324        C485   1.515       .  S
O325        C330   1.273       .  A
O326        C328   1.271       .  A
C327        O329   1.274       .  A
C327        C998   1.501       .  S
C328       C1558   1.494       .  S
C330       C1409   1.458       .  S
Fe331       O347   2.061       .  S
Fe331       O337   2.044       .  S
Fe331       O344   2.042       .  S
Fe331       O336   2.049       .  S
Fe331       O342   1.963       .  S
Fe332       O335   2.089       .  S
Fe332       O339   2.118       .  S
Fe332       O343   2.071       .  S
Fe332       O348   2.092       .  S
Fe332       O342   1.966       .  S
Fe333       O351   2.086       .  S
Fe333       O338   2.098       .  S
Fe333       O345   2.070       .  S
Fe333       O334   2.110       .  S
Fe333       O342   1.975       .  S
O334        C341   1.271       .  A
O335        C349   1.275       .  A
O336        C341   1.262       .  A
O337        C340   1.274       .  A
O338        C350   1.279       .  A
O339        C352   1.277       .  A
C340        O345   1.276       .  A
C340        C970   1.468       .  S
C341        C457   1.507       .  S
O343        C346   1.274       .  A
O344        C346   1.271       .  A
C346        C513   1.468       .  S
O347        C352   1.262       .  A
O348        C350   1.278       .  A
C349        O351   1.272       .  A
C349        C821   1.501       .  S
C350       C1465   1.500       .  S
C352        C438   1.515       .  S
Fe353       O369   2.070       .  S
Fe353       O359   2.037       .  S
Fe353       O366   2.046   1_455  S
Fe353       O358   2.063   1_455  S
Fe353       O364   1.976   1_455  S
Fe354       O357   2.097   1_655  S
Fe354       O361   2.102   1_655  S
Fe354       O365   2.065       .  S
Fe354       O370   2.099       .  S
Fe354       O364   1.973       .  S
Fe355       O373   2.054       .  S
Fe355       O360   2.063   1_455  S
Fe355       O367   2.061       .  S
Fe355       O356   2.095   1_455  S
Fe355       O364   1.980   1_455  S
O356        C363   1.268       .  A
O357        C371   1.276       .  A
O358        C363   1.267       .  A
O359        C362   1.270       .  A
O360        C372   1.268       .  A
O361        C374   1.274       .  A
C362        O367   1.271       .  A
C362        C849   1.464       .  S
C363        C401   1.509       .  S
O365        C368   1.276       .  A
O366        C368   1.270       .  A
C368       C1605   1.453       .  S
O369        C374   1.263       .  A
O370        C372   1.275       .  A
C371        O373   1.271       .  A
C371       C1185   1.500       .  S
C372        C746   1.492       .  S
C374        C429   1.514       .  S
Fe375       O391   2.062       .  S
Fe375       O381   2.015       .  S
Fe375       O388   2.020       .  S
Fe375       O380   2.062       .  S
Fe375       O386   1.963       .  S
Fe376       O379   2.093       .  S
Fe376       O383   2.104       .  S
Fe376       O387   2.093       .  S
Fe376       O392   2.071       .  S
Fe376       O386   1.971       .  S
Fe377       O395   2.076       .  S
Fe377       O382   2.076       .  S
Fe377       O389   2.079       .  S
Fe377       O378   2.099       .  S
Fe377       O386   1.978       .  S
O378        C385   1.270       .  A
O379        C393   1.280       .  A
O380        C385   1.266       .  A
O381        C384   1.266       .  A
O382        C394   1.269       .  A
O383        C396   1.269       .  A
C384        O389   1.273       .  A
C384       C1530   1.464       .  S
C385        C466   1.498       .  S
O387        C390   1.282       .  A
O388        C390   1.266       .  A
C390        C550   1.470       .  S
O391        C396   1.265       .  A
O392        C394   1.270       .  A
C393        O395   1.274       .  A
C393       C1306   1.493       .  S
C394        C662   1.496       .  S
C396        C410   1.512       .  S
C397        C398   1.409       .  A
C397        C402   1.413       .  A
C397        H407   1.079       .  S
C398        C403   1.507       .  S
C398        C399   1.413       .  A
C399        C400   1.400       .  A
C399        N404   1.429       .  S
C400        C401   1.409       .  A
C400        H405   1.080       .  S
C401        C402   1.420       .  A
C402        N406   1.428       .  S
C403        C408   1.413       .  A
C403        C412   1.408       .  A
N404        O419   1.262       .  A
N404        O420   1.262       .  A
N406        O417   1.262       .  A
N406        O418   1.262       .  A
C408        C409   1.403       .  A
C408        N413   1.429       .  S
C409        C410   1.411       .  A
C409        H414   1.080       .  S
C410        C411   1.419       .  A
C411        C412   1.412       .  A
C411        N415   1.428       .  S
C412        H416   1.079       .  S
N413        O423   1.262       .  A
N413        O424   1.262       .  A
N415        O421   1.262       .  A
N415        O422   1.262       .  A
C425        C426   1.405       .  A
C425        C430   1.411       .  A
C425        H435   1.081       .  S
C426        C431   1.511       .  S
C426        C427   1.417       .  A
C427        C428   1.409       .  A
C427        N432   1.428       .  S
C428        C429   1.408       .  A
C428        H433   1.081       .  S
C429        C430   1.425       .  A
C430        N434   1.429       .  S
C431        C436   1.418       .  A
C431        C440   1.402       .  A
N432        O447   1.262       .  A
N432        O448   1.262       .  A
N434        O445   1.262       .  A
N434        O446   1.262       .  A
C436        C437   1.413       .  A
C436        N441   1.427       .  S
C437        C438   1.408   1_554  A
C437        H442   1.081       .  S
C438        C439   1.426       .  A
C439        C440   1.408   1_556  A
C439        N443   1.429       .  S
C440        H444   1.081       .  S
N441        O451   1.262       .  A
N441        O452   1.262       .  A
N443        O449   1.262       .  A
N443        O450   1.262       .  A
C453        C454   1.405       .  A
C453        C458   1.411       .  A
C453        H463   1.080       .  S
C454        C459   1.496   1_455  S
C454        C455   1.408   1_455  A
C455        C456   1.405   1_655  A
C455        N460   1.429       .  S
C456        C457   1.412       .  A
C456        H461   1.080       .  S
C457        C458   1.418       .  A
C458        N462   1.427       .  S
C459        C464   1.410       .  A
C459        C468   1.406       .  A
N460        O475   1.262       .  A
N460        O476   1.262       .  A
N462        O473   1.262       .  A
N462        O474   1.262       .  A
C464        C465   1.401       .  A
C464        N469   1.428       .  S
C465        C466   1.407       .  A
C465        H470   1.083       .  S
C466        C467   1.416       .  A
C467        C468   1.412       .  A
C467        N471   1.428       .  S
C468        H472   1.083       .  S
N469        O479   1.262   1_655  A
N469        O480   1.262       .  A
N471        O477   1.262       .  A
N471        O478   1.261       .  A
C481        C482   1.410       .  A
C481        C486   1.415       .  A
C481        H491   1.080       .  S
C482        C487   1.509       .  S
C482        C483   1.412       .  A
C483        C484   1.406       .  A
C483        N488   1.429       .  S
C484        C485   1.412       .  A
C484        H489   1.080       .  S
C485        C486   1.420       .  A
C486        N490   1.428       .  S
C487        C492   1.417       .  A
C487        C496   1.402       .  A
N488        O503   1.262       .  A
N488        O504   1.262       .  A
N490        O501   1.262       .  A
N490        O502   1.262       .  A
C492        C493   1.414       .  A
C492        N497   1.429       .  S
C493        C494   1.410   1_556  A
C493        H498   1.080       .  S
C494        C495   1.423       .  A
C495        C496   1.407   1_554  A
C495        N499   1.428       .  S
C496        H500   1.081       .  S
N497        O507   1.262       .  A
N497        O508   1.261       .  A
N499        O505   1.262       .  A
N499        O506   1.262       .  A
C509        C510   1.401   1_455  A
C509        C514   1.395       .  A
C509        H519   1.083       .  S
C510        C515   1.466   1_556  S
C510        C511   1.406       .  A
C511        C512   1.394   1_655  A
C511        N516   1.429       .  S
C512        C513   1.404       .  A
C512        H517   1.082       .  S
C513        C514   1.410       .  A
C514        N518   1.429       .  S
C515        C520   1.408   1_554  A
C515        C524   1.397       .  A
N516        O531   1.262   1_556  A
N516        O532   1.261       .  A
N518        O529   1.261       .  A
N518        O530   1.262       .  A
C520        C521   1.399   1_556  A
C520        N525   1.429       .  S
C521        C522   1.405       .  A
C521        H526   1.081   1_554  S
C522        C523   1.414       .  A
C523        C524   1.392       .  A
C523        N527   1.429       .  S
C524        H528   1.082   1_655  S
N525        O535   1.262       .  A
N525        O536   1.261       .  A
N527        O533   1.262       .  A
N527        O534   1.262       .  A
C537        C538   1.395   1_655  A
C537        C542   1.392   1_655  A
C537        H547   1.083       .  S
C538        C543   1.461   1_455  S
C538        C539   1.404       .  A
C539        C540   1.400       .  A
C539        N544   1.430       .  S
C540        C541   1.408       .  A
C540        H545   1.084       .  S
C541        C542   1.413       .  A
C542        N546   1.428       .  S
C543        C548   1.405       .  A
C543        C552   1.394       .  A
N544        O559   1.262       .  A
N544        O560   1.262       .  A
N546        O557   1.262   1_455  A
N546        O558   1.262       .  A
C548        C549   1.396       .  A
C548        N553   1.428       .  S
C549        C550   1.402       .  A
C549        H554   1.080       .  S
C550        C551   1.419       .  A
C551        C552   1.390       .  A
C551        N555   1.430       .  S
C552        H556   1.081   1_655  S
N553        O563   1.262       .  A
N553        O564   1.262       .  A
N555        O561   1.261       .  A
N555        O562   1.262       .  A
C565        C566   1.402       .  A
C565        C570   1.405       .  A
C565        H575   1.082       .  S
C566        C571   1.502       .  S
C566        C567   1.416       .  A
C567        C568   1.409       .  A
C567        N572   1.427       .  S
C568        C569   1.407       .  A
C568        H573   1.081       .  S
C569        C570   1.423       .  A
C570        N574   1.429       .  S
C571        C576   1.411       .  A
C571        C580   1.409       .  A
N572        O587   1.262       .  A
N572        O588   1.262       .  A
N574        O585   1.262       .  A
N574        O586   1.262       .  A
C576        C577   1.404       .  A
C576        N581   1.429       .  S
C577        C578   1.412       .  A
C577        H582   1.082       .  S
C578        C579   1.418       .  A
C579        C580   1.413       .  A
C579        N583   1.427       .  S
C580        H584   1.082       .  S
N581        O591   1.262       .  A
N581        O592   1.262       .  A
N583        O589   1.262       .  A
N583        O590   1.262       .  A
C593        C594   1.412       .  A
C593        C598   1.408       .  A
C593        H603   1.084       .  S
C594        C599   1.511   1_455  S
C594        C595   1.422       .  A
C595        C596   1.404       .  A
C595        N600   1.428   1_455  S
C596        C597   1.398       .  A
C596        H601   1.085       .  S
C597        C598   1.409       .  A
C598        N602   1.430       .  S
C599        C604   1.419       .  A
C599        C608   1.410       .  A
N600        O615   1.262       .  A
N600        O616   1.261       .  A
N602        O613   1.262       .  A
N602        O614   1.262       .  A
C604        C605   1.405       .  A
C604        N609   1.429   1_655  S
C605        C606   1.405       .  A
C605        H610   1.081       .  S
C606        C607   1.413       .  A
C607        C608   1.407       .  A
C607        N611   1.428       .  S
C608        H612   1.079       .  S
N609        O619   1.262       .  A
N609        O620   1.262       .  A
N611        O617   1.262       .  A
N611        O618   1.262       .  A
C621        C622   1.398       .  A
C621        C626   1.392       .  A
C621        H631   1.082       .  S
C622        C627   1.466       .  S
C622        C623   1.405       .  A
C623        C624   1.394       .  A
C623        N628   1.428       .  S
C624        C625   1.405       .  A
C624        H629   1.082       .  S
C625        C626   1.417       .  A
C626        N630   1.429       .  S
C627        C632   1.409       .  A
C627        C636   1.402       .  A
N628        O643   1.262       .  A
N628        O644   1.262       .  A
N630        O641   1.262       .  A
N630        O642   1.262       .  A
C632        C633   1.388       .  A
C632        N637   1.429       .  S
C633        C634   1.395       .  A
C633        H638   1.083       .  S
C634        C635   1.409       .  A
C635        C636   1.399       .  A
C635        N639   1.429       .  S
C636        H640   1.081       .  S
N637        O647   1.262       .  A
N637        O648   1.262       .  A
N639        O645   1.262       .  A
N639        O646   1.262       .  A
C649        C650   1.407       .  A
C649        C654   1.407       .  A
C649        H659   1.082       .  S
C650        C655   1.502       .  S
C650        C651   1.416       .  A
C651        C652   1.400       .  A
C651        N656   1.429       .  S
C652        C653   1.404       .  A
C652        H657   1.084       .  S
C653        C654   1.417       .  A
C654        N658   1.429       .  S
C655        C660   1.416       .  A
C655        C664   1.405       .  A
N656        O671   1.262       .  A
N656        O672   1.261       .  A
N658        O669   1.262       .  A
N658        O670   1.262       .  A
C660        C661   1.404       .  A
C660        N665   1.429       .  S
C661        C662   1.407       .  A
C661        H666   1.081       .  S
C662        C663   1.416       .  A
C663        C664   1.404       .  A
C663        N667   1.428       .  S
C664        H668   1.078       .  S
N665        O675   1.262       .  A
N665        O676   1.262       .  A
N667        O673   1.262       .  A
N667        O674   1.262       .  A
C677        C678   1.404       .  A
C677        C682   1.399       .  A
C677        H687   1.081       .  S
C678        C683   1.466       .  S
C678        C679   1.403       .  A
C679        C680   1.388       .  A
C679        N684   1.430       .  S
C680        C681   1.406       .  A
C680        H685   1.079       .  S
C681        C682   1.409       .  A
C682        N686   1.428       .  S
C683        C688   1.406       .  A
C683        C692   1.401       .  A
N684        O699   1.262       .  A
N684        O700   1.261       .  A
N686        O697   1.262       .  A
N686        O698   1.262       .  A
C688        C689   1.390       .  A
C688        N693   1.429       .  S
C689        C690   1.402       .  A
C689        H694   1.084       .  S
C690        C691   1.413       .  A
C691        C692   1.397       .  A
C691        N695   1.429       .  S
C692        H696   1.083       .  S
N693        O703   1.262       .  A
N693        O704   1.261       .  A
N695        O701   1.262       .  A
N695        O702   1.262       .  A
C705        C706   1.406       .  A
C705        C710   1.410       .  A
C705        H715   1.082       .  S
C706        C711   1.501       .  S
C706        C707   1.410       .  A
C707        C708   1.404       .  A
C707        N712   1.429       .  S
C708        C709   1.413       .  A
C708        H713   1.082       .  S
C709        C710   1.418       .  A
C710        N714   1.427       .  S
C711        C716   1.410       .  A
C711        C720   1.409       .  A
N712        O727   1.262       .  A
N712        O728   1.262       .  A
N714        O725   1.262       .  A
N714        O726   1.262       .  A
C716        C717   1.398       .  A
C716        N721   1.429       .  S
C717        C718   1.411       .  A
C717        H722   1.083       .  S
C718        C719   1.416       .  A
C719        C720   1.414       .  A
C719        N723   1.427       .  S
C720        H724   1.083       .  S
N721        O731   1.262       .  A
N721        O732   1.262       .  A
N723        O729   1.262       .  A
N723        O730   1.261       .  A
C733        C734   1.407       .  A
C733        C738   1.407       .  A
C733        H743   1.080       .  S
C734        C739   1.506       .  S
C734        C735   1.419       .  A
C735        C736   1.402       .  A
C735        N740   1.430       .  S
C736        C737   1.404       .  A
C736        H741   1.082       .  S
C737        C738   1.418       .  A
C738        N742   1.429       .  S
C739        C744   1.420       .  A
C739        C748   1.405       .  A
N740        O755   1.263       .  A
N740        O756   1.261       .  A
N742        O753   1.262       .  A
N742        O754   1.262       .  A
C744        C745   1.408       .  A
C744        N749   1.429       .  S
C745        C746   1.404       .  A
C745        H750   1.082       .  S
C746        C747   1.414       .  A
C747        C748   1.402       .  A
C747        N751   1.429       .  S
C748        H752   1.079       .  S
N749        O759   1.262       .  A
N749        O760   1.262       .  A
N751        O757   1.262       .  A
N751        O758   1.262       .  A
C761        C762   1.407       .  A
C761        C766   1.414       .  A
C761        H771   1.082       .  S
C762        C767   1.497       .  S
C762        C763   1.407       .  A
C763        C764   1.399       .  A
C763        N768   1.429       .  S
C764        C765   1.412       .  A
C764        H769   1.082   1_554  S
C765        C766   1.419       .  A
C766        N770   1.428       .  S
C767        C772   1.407       .  A
C767        C776   1.408       .  A
N768        O783   1.262       .  A
N768        O784   1.262       .  A
N770        O781   1.262       .  A
N770        O782   1.262       .  A
C772        C773   1.400       .  A
C772        N777   1.428       .  S
C773        C774   1.412       .  A
C773        H778   1.080       .  S
C774        C775   1.419       .  A
C775        C776   1.414       .  A
C775        N779   1.428       .  S
C776        H780   1.080       .  S
N777        O787   1.262       .  A
N777        O788   1.262       .  A
N779        O785   1.262       .  A
N779        O786   1.261       .  A
C789        C790   1.405   1_545  A
C789        C794   1.413   1_545  A
C789        H799   1.079       .  S
C790        C795   1.514   1_565  S
C790        C791   1.419       .  A
C791        C792   1.411       .  A
C791        N796   1.429       .  S
C792        C793   1.409       .  A
C792        H797   1.080       .  S
C793        C794   1.425       .  A
C794        N798   1.429       .  S
C795        C800   1.419       .  A
C795        C804   1.402       .  A
N796        O811   1.262       .  A
N796        O812   1.262       .  A
N798        O809   1.262   1_565  A
N798        O810   1.262   1_565  A
C800        C801   1.416       .  A
C800        N805   1.428       .  S
C801        C802   1.410       .  A
C801        H806   1.080       .  S
C802        C803   1.425       .  A
C803        C804   1.407       .  A
C803        N807   1.429       .  S
C804        H808   1.079   1_545  S
N805        O815   1.262       .  A
N805        O816   1.262       .  A
N807        O813   1.262       .  A
N807        O814   1.262       .  A
C817        C818   1.401       .  A
C817        C822   1.407       .  A
C817        H827   1.083       .  S
C818        C823   1.487       .  S
C818        C819   1.405       .  A
C819        C820   1.406       .  A
C819        N824   1.430       .  S
C820        C821   1.413       .  A
C820        H825   1.084       .  S
C821        C822   1.417       .  A
C822        N826   1.427       .  S
C823        C828   1.410       .  A
C823        C832   1.402       .  A
N824        O839   1.262       .  A
N824        O840   1.262       .  A
N826        O837   1.261       .  A
N826        O838   1.262       .  A
C828        C829   1.405       .  A
C828        N833   1.427       .  S
C829        C830   1.402       .  A
C829        H834   1.082       .  S
C830        C831   1.412       .  A
C831        C832   1.402       .  A
C831        N835   1.430       .  S
C832        H836   1.082       .  S
N833        O843   1.261       .  A
N833        O844   1.262       .  A
N835        O841   1.262       .  A
N835        O842   1.262       .  A
C845        C846   1.402       .  A
C845        C850   1.394       .  A
C845        H855   1.083       .  S
C846        C851   1.468       .  S
C846        C847   1.408       .  A
C847        C848   1.391       .  A
C847        N852   1.428       .  S
C848        C849   1.401       .  A
C848        H853   1.083       .  S
C849        C850   1.412       .  A
C850        N854   1.430       .  S
C851        C856   1.409       .  A
C851        C860   1.400       .  A
N852        O867   1.262       .  A
N852        O868   1.262       .  A
N854        O865   1.262       .  A
N854        O866   1.262       .  A
C856        C857   1.394       .  A
C856        N861   1.429       .  S
C857        C858   1.403       .  A
C857        H862   1.082       .  S
C858        C859   1.413       .  A
C859        C860   1.392       .  A
C859        N863   1.429       .  S
C860        H864   1.082       .  S
N861        O871   1.262       .  A
N861        O872   1.262       .  A
N863        O869   1.262       .  A
N863        O870   1.262       .  A
C873        C874   1.401       .  A
C873        C878   1.398       .  A
C873        H883   1.081       .  S
C874        C879   1.466   1_545  S
C874        C875   1.403   1_545  A
C875        C876   1.387   1_565  A
C875        N880   1.430       .  S
C876        C877   1.408       .  A
C876        H881   1.081       .  S
C877        C878   1.414       .  A
C878        N882   1.429       .  S
C879        C884   1.409       .  A
C879        C888   1.399       .  A
N880        O895   1.262       .  A
N880        O896   1.262       .  A
N882        O893   1.262       .  A
N882        O894   1.262       .  A
C884        C885   1.393       .  A
C884        N889   1.428   1_565  S
C885        C886   1.399       .  A
C885        H890   1.082       .  S
C886        C887   1.410       .  A
C887        C888   1.391       .  A
C887        N891   1.428       .  S
C888        H892   1.081       .  S
N889        O899   1.262       .  A
N889        O900   1.262       .  A
N891        O897   1.261       .  A
N891        O898   1.262       .  A
C901        C902   1.402       .  A
C901        C906   1.407       .  A
C901        H911   1.081       .  S
C902        C907   1.496       .  S
C902        C903   1.414       .  A
C903        C904   1.404       .  A
C903        N908   1.429       .  S
C904        C905   1.407       .  A
C904        H909   1.081       .  S
C905        C906   1.422       .  A
C906        N910   1.429       .  S
C907        C912   1.416       .  A
C907        C916   1.402       .  A
N908        O923   1.262       .  A
N908        O924   1.262       .  A
N910        O921   1.262       .  A
N910        O922   1.262       .  A
C912        C913   1.408       .  A
C912        N917   1.428       .  S
C913        C914   1.405       .  A
C913        H918   1.082       .  S
C914        C915   1.415       .  A
C915        C916   1.401       .  A
C915        N919   1.429       .  S
C916        H920   1.082       .  S
N917        O927   1.262       .  A
N917        O928   1.262       .  A
N919        O925   1.262       .  A
N919        O926   1.262       .  A
C929        C930   1.401       .  A
C929        C934   1.402       .  A
C929        H939   1.081       .  S
C930        C935   1.502       .  S
C930        C931   1.416       .  A
C931        C932   1.411       .  A
C931        N936   1.427       .  S
C932        C933   1.408       .  A
C932        H937   1.080       .  S
C933        C934   1.422       .  A
C934        N938   1.429       .  S
C935        C940   1.411       .  A
C935        C944   1.408       .  A
N936        O951   1.262       .  A
N936        O952   1.261       .  A
N938        O949   1.262       .  A
N938        O950   1.262       .  A
C940        C941   1.406       .  A
C940        N945   1.429       .  S
C941        C942   1.413       .  A
C941        H946   1.083       .  S
C942        C943   1.418       .  A
C943        C944   1.412       .  A
C943        N947   1.427       .  S
C944        H948   1.084       .  S
N945        O955   1.262       .  A
N945        O956   1.262       .  A
N947        O953   1.262       .  A
N947        O954   1.262       .  A
C957        C958   1.395       .  A
C957        C962   1.387       .  A
C957        H967   1.081       .  S
C958        C963   1.461       .  S
C958        C959   1.411       .  A
C959        C960   1.397       .  A
C959        N964   1.428       .  S
C960        C961   1.396       .  A
C960        H965   1.081       .  S
C961        C962   1.408       .  A
C962        N966   1.430       .  S
C963        C968   1.405       .  A
C963        C972   1.399       .  A
N964        O979   1.262       .  A
N964        O980   1.262       .  A
N966        O977   1.262       .  A
N966        O978   1.262       .  A
C968        C969   1.390       .  A
C968        N973   1.429       .  S
C969        C970   1.404       .  A
C969        H974   1.083       .  S
C970        C971   1.412       .  A
C971        C972   1.395       .  A
C971        N975   1.428       .  S
C972        H976   1.083       .  S
N973        O983   1.262       .  A
N973        O984   1.262       .  A
N975        O981   1.262       .  A
N975        O982   1.262       .  A
C985        C986   1.402       .  A
C985        C990   1.408       .  A
C985        H995   1.080       .  S
C986        C991   1.503       .  S
C986        C987   1.415       .  A
C987        C988   1.407       .  A
C987        N992   1.428       .  S
C988        C989   1.408       .  A
C988        H993   1.081       .  S
C989        C990   1.425       .  A
C990        N994   1.429       .  S
C991        C996   1.417       .  A
C991       C1000   1.403       .  A
N992       O1007   1.262       .  A
N992       O1008   1.262       .  A
N994       O1005   1.262       .  A
N994       O1006   1.262       .  A
C996        C997   1.408       .  A
C996       N1001   1.428       .  S
C997        C998   1.406       .  A
C997       H1002   1.082       .  S
C998        C999   1.419       .  A
C999       C1000   1.405       .  A
C999       N1003   1.429       .  S
C1000      H1004   1.081       .  S
N1001      O1011   1.262       .  A
N1001      O1012   1.262       .  A
N1003      O1009   1.262   1_455  A
N1003      O1010   1.262       .  A
C1013      C1014   1.403       .  A
C1013      C1018   1.400       .  A
C1013      H1023   1.078       .  S
C1014      C1019   1.471   1_565  S
C1014      C1015   1.407   1_554  A
C1015      C1016   1.389       .  A
C1015      N1020   1.430   1_565  S
C1016      C1017   1.403       .  A
C1016      H1021   1.080       .  S
C1017      C1018   1.411   1_556  A
C1018      N1022   1.428       .  S
C1019      C1024   1.408   1_545  A
C1019      C1028   1.401       .  A
N1020      O1035   1.262       .  A
N1020      O1036   1.262       .  A
N1022      O1033   1.262       .  A
N1022      O1034   1.262       .  A
C1024      C1025   1.394   1_565  A
C1024      N1029   1.429       .  S
C1025      C1026   1.404       .  A
C1025      H1030   1.080       .  S
C1026      C1027   1.411       .  A
C1027      C1028   1.396       .  A
C1027      N1031   1.429       .  S
C1028      H1032   1.080       .  S
N1029      O1039   1.262       .  A
N1029      O1040   1.262   1_554  A
N1031      O1037   1.262       .  A
N1031      O1038   1.261       .  A
C1041      C1042   1.402       .  A
C1041      C1046   1.408       .  A
C1041      H1051   1.081       .  S
C1042      C1047   1.511       .  S
C1042      C1043   1.417       .  A
C1043      C1044   1.415       .  A
C1043      N1048   1.427       .  S
C1044      C1045   1.409       .  A
C1044      H1049   1.080       .  S
C1045      C1046   1.426       .  A
C1046      N1050   1.429       .  S
C1047      C1052   1.414       .  A
C1047      C1056   1.408       .  A
N1048      O1063   1.262       .  A
N1048      O1064   1.261       .  A
N1050      O1061   1.262       .  A
N1050      O1062   1.262       .  A
C1052      C1053   1.410   1_556  A
C1052      N1057   1.428       .  S
C1053      C1054   1.411   1_554  A
C1053      H1058   1.081       .  S
C1054      C1055   1.421       .  A
C1055      C1056   1.414       .  A
C1055      N1059   1.428       .  S
C1056      H1060   1.081       .  S
N1057      O1067   1.262       .  A
N1057      O1068   1.262   1_556  A
N1059      O1065   1.262       .  A
N1059      O1066   1.262       .  A
C1069      C1070   1.405   1_545  A
C1069      C1074   1.410   1_545  A
C1069      H1079   1.081       .  S
C1070      C1075   1.503   1_565  S
C1070      C1071   1.414       .  A
C1071      C1072   1.406       .  A
C1071      N1076   1.428       .  S
C1072      C1073   1.407       .  A
C1072      H1077   1.081       .  S
C1073      C1074   1.420       .  A
C1074      N1078   1.429       .  S
C1075      C1080   1.411       .  A
C1075      C1084   1.408       .  A
N1076      O1091   1.262       .  A
N1076      O1092   1.261       .  A
N1078      O1089   1.262   1_565  A
N1078      O1090   1.262   1_565  A
C1080      C1081   1.404       .  A
C1080      N1085   1.429   1_545  S
C1081      C1082   1.410       .  A
C1081      H1086   1.080       .  S
C1082      C1083   1.420       .  A
C1083      C1084   1.416       .  A
C1083      N1087   1.428       .  S
C1084      H1088   1.080       .  S
N1085      O1095   1.262   1_565  A
N1085      O1096   1.261       .  A
N1087      O1093   1.262       .  A
N1087      O1094   1.262       .  A
C1097      C1098   1.399       .  A
C1097      C1102   1.398       .  A
C1097      H1107   1.082       .  S
C1098      C1103   1.497       .  S
C1098      C1099   1.418       .  A
C1099      C1100   1.406       .  A
C1099      N1104   1.429       .  S
C1100      C1101   1.406       .  A
C1100      H1105   1.083       .  S
C1101      C1102   1.421       .  A
C1102      N1106   1.428       .  S
C1103      C1108   1.420       .  A
C1103      C1112   1.400       .  A
N1104      O1119   1.262       .  A
N1104      O1120   1.261       .  A
N1106      O1117   1.261       .  A
N1106      O1118   1.262       .  A
C1108      C1109   1.405       .  A
C1108      N1113   1.429       .  S
C1109      C1110   1.401       .  A
C1109      H1114   1.082       .  S
C1110      C1111   1.419       .  A
C1111      C1112   1.398       .  A
C1111      N1115   1.430       .  S
C1112      H1116   1.080       .  S
N1113      O1123   1.262       .  A
N1113      O1124   1.262       .  A
N1115      O1121   1.262       .  A
N1115      O1122   1.262       .  A
C1125      C1126   1.394       .  A
C1125      C1130   1.387       .  A
C1125      H1135   1.082       .  S
C1126      C1131   1.456       .  S
C1126      C1127   1.406       .  A
C1127      C1128   1.397       .  A
C1127      N1132   1.428       .  S
C1128      C1129   1.402       .  A
C1128      H1133   1.081       .  S
C1129      C1130   1.415       .  A
C1130      N1134   1.430       .  S
C1131      C1136   1.403       .  A
C1131      C1140   1.397       .  A
N1132      O1147   1.262       .  A
N1132      O1148   1.261       .  A
N1134      O1145   1.262       .  A
N1134      O1146   1.262       .  A
C1136      C1137   1.390       .  A
C1136      N1141   1.427       .  S
C1137      C1138   1.402       .  A
C1137      H1142   1.082       .  S
C1138      C1139   1.412       .  A
C1139      C1140   1.392       .  A
C1139      N1143   1.429       .  S
C1140      H1144   1.083       .  S
N1141      O1151   1.262       .  A
N1141      O1152   1.262       .  A
N1143      O1149   1.262       .  A
N1143      O1150   1.261       .  A
C1153      C1154   1.398       .  A
C1153      C1158   1.390       .  A
C1153      H1163   1.082       .  S
C1154      C1159   1.469       .  S
C1154      C1155   1.408       .  A
C1155      C1156   1.396       .  A
C1155      N1160   1.428       .  S
C1156      C1157   1.404       .  A
C1156      H1161   1.082       .  S
C1157      C1158   1.411       .  A
C1158      N1162   1.427       .  S
C1159      C1164   1.407       .  A
C1159      C1168   1.402       .  A
N1160      O1175   1.262       .  A
N1160      O1176   1.262       .  A
N1162      O1173   1.261       .  A
N1162      O1174   1.262       .  A
C1164      C1165   1.386       .  A
C1164      N1169   1.429       .  S
C1165      C1166   1.401       .  A
C1165      H1170   1.081       .  S
C1166      C1167   1.414       .  A
C1167      C1168   1.400       .  A
C1167      N1171   1.429       .  S
C1168      H1172   1.080       .  S
N1169      O1179   1.262       .  A
N1169      O1180   1.262       .  A
N1171      O1177   1.262       .  A
N1171      O1178   1.261       .  A
C1181      C1182   1.408       .  A
C1181      C1186   1.410       .  A
C1181      H1191   1.082       .  S
C1182      C1187   1.491   1_565  S
C1182      C1183   1.408       .  A
C1183      C1184   1.395       .  A
C1183      N1188   1.429       .  S
C1184      C1185   1.411       .  A
C1184      H1189   1.081       .  S
C1185      C1186   1.416       .  A
C1186      N1190   1.428       .  S
C1187      C1192   1.413       .  A
C1187      C1196   1.402       .  A
N1188      O1203   1.262       .  A
N1188      O1204   1.262       .  A
N1190      O1201   1.262       .  A
N1190      O1202   1.262       .  A
C1192      C1193   1.404       .  A
C1192      N1197   1.429       .  S
C1193      C1194   1.406       .  A
C1193      H1198   1.082       .  S
C1194      C1195   1.415       .  A
C1195      C1196   1.401       .  A
C1195      N1199   1.427       .  S
C1196      H1200   1.083       .  S
N1197      O1207   1.262       .  A
N1197      O1208   1.261       .  A
N1199      O1205   1.262       .  A
N1199      O1206   1.262       .  A
C1209      C1210   1.405       .  A
C1209      C1214   1.403       .  A
C1209      H1219   1.083       .  S
C1210      C1215   1.492   1_655  S
C1210      C1211   1.414       .  A
C1211      C1212   1.402       .  A
C1211      N1216   1.427       .  S
C1212      C1213   1.400       .  A
C1212      H1217   1.083       .  S
C1213      C1214   1.413       .  A
C1214      N1218   1.430       .  S
C1215      C1220   1.412       .  A
C1215      C1224   1.404       .  A
N1216      O1231   1.262       .  A
N1216      O1232   1.262       .  A
N1218      O1229   1.262       .  A
N1218      O1230   1.262       .  A
C1220      C1221   1.400       .  A
C1220      N1225   1.429       .  S
C1221      C1222   1.406       .  A
C1221      H1226   1.085       .  S
C1222      C1223   1.415       .  A
C1223      C1224   1.405       .  A
C1223      N1227   1.428       .  S
C1224      H1228   1.084       .  S
N1225      O1235   1.262       .  A
N1225      O1236   1.262       .  A
N1227      O1233   1.261       .  A
N1227      O1234   1.261       .  A
C1237      C1238   1.399       .  A
C1237      C1242   1.396       .  A
C1237      H1247   1.080       .  S
C1238      C1243   1.466       .  S
C1238      C1239   1.408       .  A
C1239      C1240   1.392       .  A
C1239      N1244   1.429       .  S
C1240      C1241   1.401       .  A
C1240      H1245   1.081       .  S
C1241      C1242   1.414       .  A
C1242      N1246   1.430       .  S
C1243      C1248   1.406       .  A
C1243      C1252   1.398       .  A
N1244      O1259   1.262       .  A
N1244      O1260   1.262       .  A
N1246      O1257   1.262       .  A
N1246      O1258   1.262       .  A
C1248      C1249   1.392       .  A
C1248      N1253   1.428       .  S
C1249      C1250   1.404       .  A
C1249      H1254   1.082       .  S
C1250      C1251   1.415       .  A
C1251      C1252   1.394       .  A
C1251      N1255   1.429       .  S
C1252      H1256   1.082       .  S
N1253      O1263   1.262       .  A
N1253      O1264   1.262       .  A
N1255      O1261   1.262       .  A
N1255      O1262   1.262       .  A
C1265      C1266   1.400       .  A
C1265      C1270   1.401       .  A
C1265      H1275   1.081       .  S
C1266      C1271   1.496       .  S
C1266      C1267   1.416       .  A
C1267      C1268   1.414       .  A
C1267      N1272   1.427       .  S
C1268      C1269   1.406       .  A
C1268      H1273   1.080       .  S
C1269      C1270   1.416       .  A
C1270      N1274   1.429       .  S
C1271      C1276   1.414       .  A
C1271      C1280   1.402       .  A
N1272      O1287   1.262       .  A
N1272      O1288   1.262       .  A
N1274      O1285   1.262       .  A
N1274      O1286   1.262       .  A
C1276      C1277   1.408       .  A
C1276      N1281   1.428       .  S
C1277      C1278   1.405       .  A
C1277      H1282   1.080       .  S
C1278      C1279   1.419       .  A
C1279      C1280   1.409       .  A
C1279      N1283   1.429       .  S
C1280      H1284   1.081       .  S
N1281      O1291   1.262       .  A
N1281      O1292   1.262       .  A
N1283      O1289   1.262       .  A
N1283      O1290   1.262       .  A
C1293      C1294   1.401       .  A
C1293      C1298   1.406       .  A
C1293      H1303   1.083       .  S
C1294      C1299   1.497       .  S
C1294      C1295   1.415       .  A
C1295      C1296   1.408       .  A
C1295      N1300   1.429       .  S
C1296      C1297   1.406       .  A
C1296      H1301   1.082       .  S
C1297      C1298   1.418       .  A
C1298      N1302   1.428       .  S
C1299      C1304   1.415       .  A
C1299      C1308   1.403       .  A
N1300      O1315   1.262       .  A
N1300      O1316   1.262       .  A
N1302      O1313   1.262       .  A
N1302      O1314   1.262       .  A
C1304      C1305   1.405       .  A
C1304      N1309   1.428       .  S
C1305      C1306   1.404       .  A
C1305      H1310   1.084       .  S
C1306      C1307   1.417       .  A
C1307      C1308   1.406       .  A
C1307      N1311   1.429       .  S
C1308      H1312   1.084       .  S
N1309      O1319   1.262       .  A
N1309      O1320   1.262       .  A
N1311      O1317   1.261       .  A
N1311      O1318   1.262       .  A
C1321      C1322   1.408       .  A
C1321      C1326   1.409       .  A
C1321      H1331   1.080       .  S
C1322      C1327   1.509       .  S
C1322      C1323   1.417       .  A
C1323      C1324   1.406       .  A
C1323      N1328   1.429       .  S
C1324      C1325   1.408       .  A
C1324      H1329   1.082       .  S
C1325      C1326   1.416       .  A
C1326      N1330   1.428       .  S
C1327      C1332   1.416       .  A
C1327      C1336   1.409       .  A
N1328      O1343   1.262       .  A
N1328      O1344   1.261       .  A
N1330      O1341   1.262       .  A
N1330      O1342   1.262       .  A
C1332      C1333   1.405       .  A
C1332      N1337   1.429       .  S
C1333      C1334   1.407       .  A
C1333      H1338   1.077       .  S
C1334      C1335   1.416       .  A
C1335      C1336   1.410       .  A
C1335      N1339   1.428       .  S
C1336      H1340   1.075       .  S
N1337      O1347   1.262       .  A
N1337      O1348   1.262       .  A
N1339      O1345   1.262       .  A
N1339      O1346   1.262       .  A
C1349      C1350   1.400       .  A
C1349      C1354   1.406       .  A
C1349      H1359   1.081       .  S
C1350      C1355   1.506       .  S
C1350      C1351   1.417       .  A
C1351      C1352   1.409       .  A
C1351      N1356   1.428       .  S
C1352      C1353   1.407       .  A
C1352      H1357   1.082       .  S
C1353      C1354   1.424       .  A
C1354      N1358   1.428       .  S
C1355      C1360   1.417       .  A
C1355      C1364   1.401       .  A
N1356      O1371   1.262       .  A
N1356      O1372   1.261       .  A
N1358      O1369   1.261       .  A
N1358      O1370   1.262       .  A
C1360      C1361   1.411       .  A
C1360      N1365   1.428       .  S
C1361      C1362   1.407       .  A
C1361      H1366   1.080       .  S
C1362      C1363   1.427       .  A
C1363      C1364   1.408       .  A
C1363      N1367   1.429       .  S
C1364      H1368   1.080       .  S
N1365      O1375   1.262       .  A
N1365      O1376   1.262       .  A
N1367      O1373   1.262       .  A
N1367      O1374   1.262       .  A
C1377      C1378   1.402       .  A
C1377      C1382   1.406   1_554  A
C1377      H1387   1.079       .  S
C1378      C1383   1.511       .  S
C1378      C1379   1.419       .  A
C1379      C1380   1.414       .  A
C1379      N1384   1.429       .  S
C1380      C1381   1.409   1_554  A
C1380      H1385   1.080       .  S
C1381      C1382   1.423       .  A
C1382      N1386   1.428       .  S
C1383      C1388   1.419       .  A
C1383      C1392   1.403       .  A
N1384      O1399   1.262       .  A
N1384      O1400   1.262       .  A
N1386      O1397   1.262       .  A
N1386      O1398   1.262       .  A
C1388      C1389   1.408       .  A
C1388      N1393   1.428       .  S
C1389      C1390   1.406       .  A
C1389      H1394   1.080       .  S
C1390      C1391   1.425       .  A
C1391      C1392   1.410       .  A
C1391      N1395   1.429       .  S
C1392      H1396   1.079       .  S
N1393      O1403   1.262       .  A
N1393      O1404   1.261       .  A
N1395      O1401   1.262       .  A
N1395      O1402   1.261       .  A
C1405      C1406   1.398       .  A
C1405      C1410   1.391       .  A
C1405      H1415   1.081       .  S
C1406      C1411   1.462       .  S
C1406      C1407   1.407       .  A
C1407      C1408   1.393       .  A
C1407      N1412   1.428       .  S
C1408      C1409   1.400       .  A
C1408      H1413   1.081       .  S
C1409      C1410   1.411       .  A
C1410      N1414   1.430       .  S
C1411      C1416   1.402       .  A
C1411      C1420   1.401       .  A
N1412      O1427   1.262       .  A
N1412      O1428   1.262       .  A
N1414      O1425   1.262       .  A
N1414      O1426   1.262       .  A
C1416      C1417   1.387       .  A
C1416      N1421   1.430       .  S
C1417      C1418   1.408       .  A
C1417      H1422   1.082       .  S
C1418      C1419   1.413       .  A
C1419      C1420   1.398       .  A
C1419      N1423   1.428       .  S
C1420      H1424   1.082       .  S
N1421      O1431   1.262       .  A
N1421      O1432   1.262       .  A
N1423      O1429   1.262       .  A
N1423      O1430   1.262       .  A
C1433      C1434   1.403       .  A
C1433      C1438   1.405       .  A
C1433      H1443   1.081       .  S
C1434      C1439   1.498       .  S
C1434      C1435   1.415       .  A
C1435      C1436   1.405       .  A
C1435      N1440   1.429       .  S
C1436      C1437   1.406       .  A
C1436      H1441   1.082       .  S
C1437      C1438   1.418       .  A
C1438      N1442   1.428       .  S
C1439      C1444   1.416       .  A
C1439      C1448   1.405       .  A
N1440      O1455   1.262       .  A
N1440      O1456   1.262       .  A
N1442      O1453   1.262       .  A
N1442      O1454   1.262       .  A
C1444      C1445   1.404       .  A
C1444      N1449   1.428       .  S
C1445      C1446   1.401       .  A
C1445      H1450   1.081       .  S
C1446      C1447   1.416       .  A
C1447      C1448   1.406       .  A
C1447      N1451   1.430       .  S
C1448      H1452   1.081       .  S
N1449      O1459   1.262       .  A
N1449      O1460   1.262       .  A
N1451      O1457   1.262       .  A
N1451      O1458   1.262       .  A
C1461      C1462   1.403       .  A
C1461      C1466   1.412       .  A
C1461      H1471   1.083       .  S
C1462      C1467   1.489       .  S
C1462      C1463   1.406       .  A
C1463      C1464   1.402       .  A
C1463      N1468   1.430       .  S
C1464      C1465   1.410       .  A
C1464      H1469   1.085       .  S
C1465      C1466   1.418       .  A
C1466      N1470   1.427       .  S
C1467      C1472   1.411       .  A
C1467      C1476   1.398       .  A
N1468      O1483   1.262       .  A
N1468      O1484   1.262       .  A
N1470      O1481   1.262       .  A
N1470      O1482   1.262       .  A
C1472      C1473   1.409       .  A
C1472      N1477   1.428       .  S
C1473      C1474   1.407       .  A
C1473      H1478   1.081       .  S
C1474      C1475   1.419       .  A
C1475      C1476   1.401       .  A
C1475      N1479   1.428       .  S
C1476      H1480   1.082       .  S
N1477      O1487   1.262       .  A
N1477      O1488   1.262       .  A
N1479      O1485   1.262       .  A
N1479      O1486   1.262       .  A
C1489      C1490   1.396       .  A
C1489      C1494   1.389       .  A
C1489      H1499   1.082       .  S
C1490      C1495   1.460       .  S
C1490      C1491   1.405       .  A
C1491      C1492   1.394       .  A
C1491      N1496   1.428       .  S
C1492      C1493   1.405       .  A
C1492      H1497   1.081       .  S
C1493      C1494   1.414       .  A
C1494      N1498   1.430       .  S
C1495      C1500   1.404       .  A
C1495      C1504   1.401       .  A
N1496      O1511   1.262       .  A
N1496      O1512   1.262       .  A
N1498      O1509   1.262       .  A
N1498      O1510   1.262       .  A
C1500      C1501   1.388       .  A
C1500      N1505   1.428       .  S
C1501      C1502   1.401       .  A
C1501      H1506   1.082       .  S
C1502      C1503   1.411       .  A
C1503      C1504   1.397       .  A
C1503      N1507   1.429       .  S
C1504      H1508   1.081       .  S
N1505      O1515   1.262       .  A
N1505      O1516   1.262       .  A
N1507      O1513   1.262       .  A
N1507      O1514   1.262       .  A
C1517      C1518   1.401       .  A
C1517      C1522   1.393       .  A
C1517      H1527   1.081       .  S
C1518      C1523   1.463       .  S
C1518      C1519   1.406       .  A
C1519      C1520   1.389       .  A
C1519      N1524   1.430       .  S
C1520      C1521   1.405       .  A
C1520      H1525   1.081       .  S
C1521      C1522   1.411       .  A
C1522      N1526   1.429       .  S
C1523      C1528   1.405       .  A
C1523      C1532   1.402       .  A
N1524      O1539   1.262       .  A
N1524      O1540   1.262       .  A
N1526      O1537   1.262       .  A
N1526      O1538   1.262       .  A
C1528      C1529   1.387       .  A
C1528      N1533   1.430       .  S
C1529      C1530   1.405       .  A
C1529      H1534   1.080       .  S
C1530      C1531   1.408       .  A
C1531      C1532   1.394       .  A
C1531      N1535   1.428       .  S
C1532      H1536   1.079       .  S
N1533      O1543   1.262       .  A
N1533      O1544   1.262       .  A
N1535      O1541   1.262       .  A
N1535      O1542   1.262       .  A
C1545      C1546   1.403       .  A
C1545      C1550   1.402       .  A
C1545      H1555   1.082       .  S
C1546      C1551   1.487   1_565  S
C1546      C1547   1.410       .  A
C1547      C1548   1.397       .  A
C1547      N1552   1.429       .  S
C1548      C1549   1.407       .  A
C1548      H1553   1.083       .  S
C1549      C1550   1.416       .  A
C1550      N1554   1.428       .  S
C1551      C1556   1.409       .  A
C1551      C1560   1.404       .  A
N1552      O1567   1.262       .  A
N1552      O1568   1.262       .  A
N1554      O1565   1.262       .  A
N1554      O1566   1.262       .  A
C1556      C1557   1.394       .  A
C1556      N1561   1.429       .  S
C1557      C1558   1.407       .  A
C1557      H1562   1.081       .  S
C1558      C1559   1.419       .  A
C1559      C1560   1.406       .  A
C1559      N1563   1.429       .  S
C1560      H1564   1.082       .  S
N1561      O1571   1.262       .  A
N1561      O1572   1.262       .  A
N1563      O1569   1.262       .  A
N1563      O1570   1.262       .  A
C1573      C1574   1.405       .  A
C1573      C1578   1.410       .  A
C1573      H1583   1.080       .  S
C1574      C1579   1.500   1_455  S
C1574      C1575   1.415       .  A
C1575      C1576   1.403       .  A
C1575      N1580   1.429       .  S
C1576      C1577   1.405       .  A
C1576      H1581   1.080       .  S
C1577      C1578   1.419       .  A
C1578      N1582   1.429       .  S
C1579      C1584   1.418       .  A
C1579      C1588   1.403       .  A
N1580      O1595   1.262       .  A
N1580      O1596   1.262       .  A
N1582      O1593   1.262       .  A
N1582      O1594   1.262       .  A
C1584      C1585   1.411       .  A
C1584      N1589   1.428       .  S
C1585      C1586   1.403       .  A
C1585      H1590   1.081       .  S
C1586      C1587   1.411       .  A
C1587      C1588   1.400       .  A
C1587      N1591   1.429       .  S
C1588      H1592   1.080       .  S
N1589      O1599   1.262       .  A
N1589      O1600   1.262       .  A
N1591      O1597   1.262       .  A
N1591      O1598   1.262       .  A
C1601      C1602   1.399       .  A
C1601      C1606   1.394       .  A
C1601      H1611   1.082       .  S
C1602      C1607   1.454       .  S
C1602      C1603   1.403       .  A
C1603      C1604   1.388       .  A
C1603      N1608   1.429       .  S
C1604      C1605   1.400       .  A
C1604      H1609   1.082       .  S
C1605      C1606   1.409       .  A
C1606      N1610   1.428       .  S
C1607      C1612   1.401       .  A
C1607      C1616   1.401       .  A
N1608      O1623   1.262       .  A
N1608      O1624   1.261       .  A
N1610      O1621   1.262       .  A
N1610      O1622   1.262       .  A
C1612      C1613   1.383       .  A
C1612      N1617   1.429       .  S
C1613      C1614   1.402       .  A
C1613      H1618   1.080       .  S
C1614      C1615   1.408       .  A
C1615      C1616   1.398       .  A
C1615      N1619   1.428       .  S
C1616      H1620   1.079       .  S
N1617      O1627   1.262       .  A
N1617      O1628   1.262       .  A
N1619      O1625   1.262       .  A
N1619      O1626   1.262       .  A
C1629      C1630   1.409       .  A
C1629      C1634   1.413       .  A
C1629      H1639   1.082       .  S
C1630      C1635   1.508       .  S
C1630      C1631   1.413       .  A
C1631      C1632   1.406       .  A
C1631      N1636   1.428       .  S
C1632      C1633   1.411       .  A
C1632      H1637   1.081       .  S
C1633      C1634   1.419       .  A
C1634      N1638   1.428       .  S
C1635      C1640   1.418       .  A
C1635      C1644   1.406       .  A
N1636      O1651   1.262       .  A
N1636      O1652   1.262       .  A
N1638      O1649   1.262       .  A
N1638      O1650   1.262       .  A
C1640      C1641   1.410       .  A
C1640      N1645   1.429       .  S
C1641      C1642   1.408       .  A
C1641      H1646   1.081       .  S
C1642      C1643   1.416       .  A
C1643      C1644   1.405       .  A
C1643      N1647   1.428   1_556  S
C1644      H1648   1.081       .  S
N1645      O1655   1.262       .  A
N1645      O1656   1.262       .  A
N1647      O1653   1.262       .  A
N1647      O1654   1.262       .  A
C1657      C1658   1.395       .  A
C1657      C1662   1.390       .  A
C1657      H1667   1.081       .  S
C1658      C1663   1.463   1_556  S
C1658      C1659   1.407   1_556  A
C1659      C1660   1.395   1_554  A
C1659      N1664   1.427       .  S
C1660      C1661   1.402       .  A
C1660      H1665   1.081   1_556  S
C1661      C1662   1.410       .  A
C1662      N1666   1.425       .  S
C1663      C1668   1.409       .  A
C1663      C1672   1.396       .  A
N1664      O1679   1.262       .  A
N1664      O1680   1.261       .  A
N1666      O1677   1.259       .  A
N1666      O1678   1.262       .  A
C1668      C1669   1.393       .  A
C1668      N1673   1.429       .  S
C1669      C1670   1.401       .  A
C1669      H1674   1.082       .  S
C1670      C1671   1.415       .  A
C1671      C1672   1.395       .  A
C1671      N1675   1.429       .  S
C1672      H1676   1.082       .  S
N1673      O1683   1.262   1_554  A
N1673      O1684   1.262       .  A
N1675      O1681   1.262       .  A
N1675      O1682   1.262       .  A
C1685      C1686   1.406       .  A
C1685      C1690   1.408       .  A
C1685      H1695   1.082       .  S
C1686      C1691   1.498       .  S
C1686      C1687   1.415       .  A
C1687      C1688   1.405       .  A
C1687      N1692   1.428       .  S
C1688      C1689   1.404       .  A
C1688      H1693   1.083       .  S
C1689      C1690   1.415       .  A
C1690      N1694   1.429       .  S
C1691      C1696   1.413       .  A
C1691      C1700   1.406       .  A
N1692      O1707   1.262       .  A
N1692      O1708   1.262       .  A
N1694      O1705   1.262       .  A
N1694      O1706   1.262       .  A
C1696      C1697   1.404       .  A
C1696      N1701   1.429       .  S
C1697      C1698   1.409       .  A
C1697      H1702   1.083       .  S
C1698      C1699   1.414       .  A
C1699      C1700   1.407       .  A
C1699      N1703   1.427       .  S
C1700      H1704   1.083       .  S
N1701      O1711   1.262       .  A
N1701      O1712   1.261       .  A
N1703      O1709   1.262       .  A
N1703      O1710   1.261       .  A
C1713      C1714   1.410       .  A
C1713      C1718   1.406       .  A
C1713      H1723   1.085       .  S
C1714      C1719   1.502       .  S
C1714      C1715   1.415       .  A
C1715      C1716   1.404       .  A
C1715      N1720   1.428       .  S
C1716      C1717   1.405       .  A
C1716      H1721   1.084       .  S
C1717      C1718   1.411       .  A
C1718      N1722   1.429       .  S
C1719      C1724   1.418       .  A
C1719      C1728   1.406       .  A
N1720      O1735   1.262       .  A
N1720      O1736   1.262       .  A
N1722      O1733   1.262       .  A
N1722      O1734   1.262       .  A
C1724      C1725   1.405       .  A
C1724      N1729   1.428       .  S
C1725      C1726   1.403       .  A
C1725      H1730   1.082       .  S
C1726      C1727   1.415       .  A
C1727      C1728   1.405       .  A
C1727      N1731   1.429       .  S
C1728      H1732   1.081       .  S
N1729      O1739   1.262       .  A
N1729      O1740   1.262       .  A
N1731      O1737   1.262       .  A
N1731      O1738   1.262       .  A
C1741      C1742   1.408       .  A
C1741      C1746   1.410       .  A
C1741      H1751   1.083       .  S
C1742      C1747   1.502       .  S
C1742      C1743   1.412       .  A
C1743      C1744   1.404       .  A
C1743      N1748   1.429       .  S
C1744      C1745   1.411       .  A
C1744      H1749   1.082       .  S
C1745      C1746   1.418       .  A
C1746      N1750   1.428       .  S
C1747      C1752   1.416       .  A
C1747      C1756   1.403       .  A
N1748      O1763   1.262       .  A
N1748      O1764   1.262       .  A
N1750      O1761   1.262       .  A
N1750      O1762   1.262       .  A
C1752      C1753   1.409       .  A
C1752      N1757   1.428       .  S
C1753      C1754   1.407       .  A
C1753      H1758   1.081       .  S
C1754      C1755   1.420       .  A
C1755      C1756   1.403       .  A
C1755      N1759   1.429       .  S
C1756      H1760   1.082       .  S
N1757      O1767   1.262       .  A
N1757      O1768   1.262       .  A
N1759      O1765   1.262       .  A
N1759      O1766   1.262       .  A
C1769      C1770   1.406       .  A
C1769      C1774   1.413       .  A
C1769      H1779   1.082       .  S
C1770      C1775   1.497       .  S
C1770      C1771   1.411       .  A
C1771      C1772   1.402       .  A
C1771      N1776   1.429       .  S
C1772      C1773   1.407       .  A
C1772      H1777   1.083       .  S
C1773      C1774   1.418       .  A
C1774      N1778   1.428       .  S
C1775      C1780   1.411       .  A
C1775      C1784   1.404       .  A
N1776      O1791   1.262       .  A
N1776      O1792   1.261       .  A
N1778      O1789   1.262       .  A
N1778      O1790   1.262       .  A
C1780      C1781   1.403       .  A
C1780      N1785   1.428       .  S
C1781      C1782   1.409       .  A
C1781      H1786   1.081       .  S
C1782      C1783   1.420       .  A
C1783      C1784   1.410       .  A
C1783      N1787   1.429       .  S
C1784      H1788   1.081       .  S
N1785      O1795   1.262       .  A
N1785      O1796   1.261       .  A
N1787      O1793   1.262       .  A
N1787      O1794   1.262       .  A
C1797      C1798   1.403       .  A
C1797      C1802   1.394       .  A
C1797      H1807   1.079       .  S
C1798      C1803   1.470       .  S
C1798      C1799   1.408       .  A
C1799      C1800   1.387       .  A
C1799      N1804   1.430       .  S
C1800      C1801   1.403       .  A
C1800      H1805   1.082       .  S
C1801      C1802   1.410       .  A
C1802      N1806   1.429       .  S
C1803      C1808   1.410       .  A
C1803      C1812   1.401       .  A
N1804      O1819   1.262       .  A
N1804      O1820   1.262       .  A
N1806      O1817   1.262       .  A
N1806      O1818   1.262       .  A
C1808      C1809   1.390       .  A
C1808      N1813   1.430       .  S
C1809      C1810   1.402       .  A
C1809      H1814   1.081       .  S
C1810      C1811   1.412       .  A
C1811      C1812   1.393       .  A
C1811      N1815   1.429       .  S
C1812      H1816   1.079       .  S
N1813      O1823   1.262       .  A
N1813      O1824   1.261       .  A
N1815      O1821   1.262       .  A
N1815      O1822   1.262       .  A
C1825      C1826   1.399       .  A
C1825      C1830   1.398       .  A
C1825      H1835   1.081       .  S
C1826      C1831   1.464       .  S
C1826      C1827   1.406       .  A
C1827      C1828   1.388       .  A
C1827      N1832   1.429       .  S
C1828      C1829   1.404       .  A
C1828      H1833   1.081       .  S
C1829      C1830   1.415       .  A
C1830      N1834   1.429       .  S
C1831      C1836   1.409       .  A
C1831      C1840   1.395       .  A
N1832      O1847   1.262       .  A
N1832      O1848   1.262       .  A
N1834      O1845   1.262       .  A
N1834      O1846   1.262       .  A
C1836      C1837   1.395       .  A
C1836      N1841   1.428       .  S
C1837      C1838   1.401       .  A
C1837      H1842   1.081       .  S
C1838      C1839   1.416       .  A
C1839      C1840   1.388       .  A
C1839      N1843   1.430       .  S
C1840      H1844   1.082       .  S
N1841      O1851   1.262       .  A
N1841      O1852   1.262       .  A
N1843      O1849   1.262       .  A
N1843      O1850   1.262       .  A
C1853      C1854   1.406       .  A
C1853      C1858   1.407       .  A
C1853      H1863   1.082       .  S
C1854      C1859   1.499       .  S
C1854      C1855   1.413       .  A
C1855      C1856   1.399       .  A
C1855      N1860   1.428       .  S
C1856      C1857   1.407       .  A
C1856      H1861   1.083       .  S
C1857      C1858   1.419       .  A
C1858      N1862   1.429       .  S
C1859      C1864   1.413       .  A
C1859      C1868   1.406       .  A
N1860      O1875   1.262       .  A
N1860      O1876   1.262       .  A
N1862      O1873   1.262       .  A
N1862      O1874   1.262       .  A
C1864      C1865   1.399       .  A
C1864      N1869   1.429       .  S
C1865      C1866   1.407       .  A
C1865      H1870   1.082       .  S
C1866      C1867   1.418       .  A
C1867      C1868   1.409       .  A
C1867      N1871   1.428       .  S
C1868      H1872   1.081       .  S
N1869      O1879   1.262       .  A
N1869      O1880   1.262       .  A
N1871      O1877   1.262       .  A
N1871      O1878   1.262       .  A
C1881      C1882   1.407       .  A
C1881      C1886   1.410       .  A
C1881      H1891   1.082       .  S
C1882      C1887   1.504       .  S
C1882      C1883   1.412       .  A
C1883      C1884   1.403       .  A
C1883      N1888   1.429       .  S
C1884      C1885   1.412       .  A
C1884      H1889   1.082       .  S
C1885      C1886   1.417       .  A
C1886      N1890   1.427       .  S
C1887      C1892   1.414       .  A
C1887      C1896   1.408       .  A
N1888      O1903   1.262       .  A
N1888      O1904   1.262       .  A
N1890      O1901   1.262       .  A
N1890      O1902   1.262       .  A
C1892      C1893   1.401       .  A
C1892      N1897   1.428       .  S
C1893      C1894   1.405       .  A
C1893      H1898   1.083       .  S
C1894      C1895   1.418       .  A
C1895      C1896   1.411       .  A
C1895      N1899   1.429       .  S
C1896      H1900   1.081       .  S
N1897      O1907   1.262       .  A
N1897      O1908   1.262       .  A
N1899      O1905   1.262       .  A
N1899      O1906   1.262       .  A
