geometry optimzed in LAMMPS
_audit_creation_date              2020-12-01 
_audit_creation_method            'lammps2cif' 
_symmetry_space_group_name_H-M    'P1' 
_symmetry_Int_Tables_number       1 
_symmetry_cell_setting            triclinic 
loop_ 
_symmetry_equiv_pos_as_xyz 
  x,y,z 
_cell_length_a                    50.74230823 
_cell_length_b                    50.680623821893825 
_cell_length_c                    39.71094392838974 
_cell_angle_alpha                 89.95594060232598 
_cell_angle_beta                  90.55730483532393 
_cell_angle_gamma                 119.96784515613982 
loop_ 
_atom_site_label 
_atom_site_type_symbol 
_atom_site_fract_x 
_atom_site_fract_y 
_atom_site_fract_z 
_atom_site_charge 
Zn1        Zn  0.49303475  0.03122843  0.36156406     1.49700
Zn2        Zn  0.47346099  0.48149829  0.30445849     1.49400
Zn3        Zn  0.04486273  0.04811067  0.30780485     1.49100
Zn4        Zn  0.02842634  0.50186765  0.36042539     1.49500
O5          O  0.01269652  0.01926296  0.33770070    -1.83500
O6          O  0.44872301  0.51932697  0.35001181    -0.74200
O7          O  0.47894261  0.49168975  0.25451493    -0.74000
O8          O  0.04761673  0.09024187  0.31349560    -0.73500
O9          O  0.43187323  0.47880930  0.31651955    -0.74200
O10         O  0.01341983  0.07952079  0.35404582    -0.73800
O11         O  0.03227906  0.03734163  0.25902630    -0.74400
O12         O  0.07785106  0.03144585  0.36738567    -0.73800
O13         O  0.47959091  0.44372456  0.30829712    -0.74500
O14         O  0.08124088  0.04010804  0.31294925    -0.73900
O15         O  0.51966575  0.46226888  0.34300529    -0.74400
O16         O  0.01557349  0.49731695  0.40787782    -0.74300
O17         O  0.49874734  0.02543406  0.41091529    -0.74100
C18         C  0.42730954  0.49773240  0.33354206     0.77700
C19         C  0.50308546  0.01198353  0.23810091     0.78200
C20         C  0.03063366  0.09689159  0.33115683     0.77200
C21         C  0.08985751  0.03196693  0.33941716     0.77500
C22         C  0.50144396  0.44191605  0.32268300     0.78700
C23         C  0.00502140  0.51143072  0.42414174     0.77700
Zn24       Zn  0.03680657  0.25948643  0.35095759     1.49700
Zn25       Zn  0.04699550  0.29803166  0.28815371     1.49400
Zn26       Zn  0.47495907  0.22703038  0.29992946     1.49100
Zn27       Zn  0.48955125  0.28183365  0.35107866     1.49500
O28         O  0.50679266  0.26361360  0.32349996    -1.83500
O29         O  0.08136427  0.28585426  0.34713532    -0.74200
O30         O  0.03149107  0.28592351  0.24086920    -0.74000
O31         O  0.48286962  0.19073798  0.30954106    -0.73500
O32         O  0.08285670  0.28867005  0.29211048    -0.74200
O33         O  0.52379516  0.21420363  0.34271380    -0.73800
O34         O  0.48140087  0.23431505  0.24956088    -0.74400
O35         O  0.44674835  0.26433405  0.33924127    -0.73800
O36         O  0.05238449  0.34130788  0.29327237    -0.74500
O37         O  0.43172974  0.22252766  0.30842056    -0.73900
O38         O  0.02101394  0.33414888  0.33598609    -0.74400
O39         O  0.49318957  0.27804631  0.40137301    -0.74300
O40         O  0.02556612  0.25797572  0.39936513    -0.74100
C41         C  0.09220813  0.28294150  0.31966365     0.77700
C42         C  0.00760545  0.26426493  0.22746175     0.78200
C43         C  0.50531017  0.19119888  0.32543834     0.77200
C44         C  0.42628731  0.24206532  0.32269311     0.77500
C45         C  0.03856571  0.35051459  0.31278818     0.78700
C46         C  0.50454531  0.26447944  0.41779343     0.77700
Zn47       Zn  0.20606210  0.45498418  0.36190122     1.49700
Zn48       Zn  0.25197057  0.46652604  0.30024905     1.49400
Zn49       Zn  0.21355385  0.99005323  0.29662770     1.49100
Zn50       Zn  0.26817240  0.01458407  0.35373201     1.49500
O51         O  0.23574828  0.48425062  0.32995726    -1.83500
O52         O  0.20377917  0.41235157  0.35398816    -0.74200
O53         O  0.24959405  0.47236926  0.25081479    -0.74000
O54         O  0.16909806  0.46784178  0.30205600    -0.73500
O55         O  0.23448587  0.42389641  0.31011512    -0.74200
O56         O  0.16815195  0.46141044  0.35699918    -0.73800
O57         O  0.22184533  0.98695173  0.24803848    -0.74400
O58         O  0.26259387  0.05156291  0.34276274    -0.73800
O59         O  0.29340655  0.97600173  0.31077932    -0.74500
O60         O  0.22451369  0.03209466  0.30513803    -0.73900
O61         O  0.30997517  0.01727070  0.34268973    -0.74400
O62         O  0.26303946  0.00939779  0.40532420    -0.74300
O63         O  0.22125439  0.46851067  0.41066422    -0.74100
C64         C  0.21819683  0.40528305  0.33254697     0.77700
C65         C  0.23855879  0.48601322  0.23417257     0.78200
C66         C  0.15780453  0.46769965  0.33041687     0.77200
C67         C  0.24294492  0.05368844  0.32406124     0.77500
C68         C  0.31482218  0.99821703  0.32637897     0.78700
C69         C  0.24317776  0.49272317  0.42367068     0.77700
Zn70       Zn  0.21288027  0.23960581  0.37026993     1.49700
Zn71       Zn  0.20611895  0.20099431  0.30656997     1.49400
Zn72       Zn  0.26782353  0.26532413  0.31565355     1.49100
Zn73       Zn  0.25375920  0.21270209  0.36801531     1.49500
O74         O  0.23588860  0.22989498  0.33912960    -1.83500
O75         O  0.16863382  0.21485226  0.36079124    -0.74200
O76         O  0.22194391  0.21243025  0.25929238    -0.74000
O77         O  0.26160511  0.30223635  0.32679648    -0.73500
O78         O  0.16980703  0.20964134  0.30613383    -0.74200
O79         O  0.22190290  0.28130101  0.36123227    -0.73800
O80         O  0.26180137  0.25894839  0.26491208    -0.74400
O81         O  0.29477342  0.22467168  0.35195507    -0.73800
O82         O  0.20247924  0.15851496  0.31539280    -0.74500
O83         O  0.30969811  0.26692139  0.32234218    -0.73900
O84         O  0.23306398  0.16913141  0.36025129    -0.74400
O85         O  0.25464230  0.22116888  0.41820447    -0.74300
O86         O  0.22082525  0.23645883  0.41927656    -0.74100
C87         C  0.15957517  0.21700324  0.33157925     0.77700
C88         C  0.24338467  0.23657979  0.24647192     0.78200
C89         C  0.24068974  0.30354391  0.34359562     0.77200
C90         C  0.31456654  0.24612675  0.33426515     0.77500
C91         C  0.21621340  0.15087833  0.33741241     0.78700
C92         C  0.23871195  0.22964896  0.43460426     0.77700
Zn93       Zn  0.02172958  0.00310400  0.03078717     1.49700
Zn94       Zn  0.00506129  0.03886355  0.97603428     1.49400
Zn95       Zn  0.48810107  0.47047324  0.96719461     1.49100
Zn96       Zn  0.46340951  0.49819746  0.02417867     1.49500
O97         O  0.49875854  0.50359994  0.99783055    -1.83500
O98         O  0.06343905  0.04280414  0.02165139    -0.74200
O99         O  0.00469015  0.02879717  0.92599338    -0.74000
O100        O  0.51656216  0.45493239  0.97268392    -0.73500
O101        O  0.04669895  0.06827067  0.99097174    -0.74200
O102        O  0.00639994  0.45318470  0.01437979    -0.73800
O103        O  0.48604167  0.47844820  0.91810470    -0.74400
O104        O  0.42761357  0.45268263  0.01830296    -0.73800
O105        O  0.98421675  0.06190124  0.98356497    -0.74500
O106        O  0.44955948  0.43662578  0.98184545    -0.73900
O107        O  0.45970714  0.04050335  0.01819785    -0.74400
O108        O  0.47328330  0.50175436  0.07450033    -0.74300
O109        O  0.01736026  0.00659997  0.08122111    -0.74100
C110        C  0.06747158  0.06771583  0.00843169     0.77700
C111        C  0.49719134  0.50309982  0.90153751     0.78200
C112        C  0.98411153  0.43079153  0.99884556     0.77200
C113        C  0.42801178  0.43107677  0.00170906     0.77500
C114        C  0.47768736  0.06404334  0.00104800     0.78700
C115        C  0.49700617  0.50683348  0.09108840     0.77700
Zn116      Zn  0.45611134  0.25007466  0.02434882     1.49700
Zn117      Zn  0.02165093  0.25342529  0.01500579     1.49400
Zn118      Zn  0.46836914  0.21865147  0.96286699     1.49100
Zn119      Zn  0.00459030  0.29073997  0.96227266     1.49500
O120        O  0.98917456  0.25485714  0.98915231    -1.83500
O121        O  0.46916628  0.25104886  0.07263009    -0.74200
O122        O  0.01478744  0.20932078  0.01104054    -0.74000
O123        O  0.42342687  0.19843609  0.96616920    -0.73500
O124        O  0.01629202  0.25812820  0.06461736    -0.74200
O125        O  0.41896553  0.20509796  0.02008015    -0.73800
O126        O  0.47667774  0.18706702  0.97906706    -0.74400
O127        O  0.00236788  0.28410801  0.91140364    -0.73800
O128        O  0.06361956  0.29198686  0.00494681    -0.74500
O129        O  0.48041634  0.22835482  0.91377112    -0.73900
O130        O  0.04726496  0.31853416  0.97555732    -0.74400
O131        O  0.98452076  0.31326019  0.97636921    -0.74300
O132        O  0.45474989  0.29110424  0.01869898    -0.74100
C133        C  0.99441037  0.25622525  0.08189112     0.77700
C134        C  0.99507968  0.18697700  0.99304889     0.78200
C135        C  0.41097254  0.18750541  0.99424346     0.77200
C136        C  0.99398896  0.25991926  0.89421904     0.77500
C137        C  0.06811968  0.31710066  0.99190378     0.78700
C138        C  0.46949477  0.31317808  0.99801339     0.77700
Zn139      Zn  0.22795018  0.49625767  0.02079204     1.49700
Zn140      Zn  0.28431577  0.02418284  0.96935964     1.49400
Zn141      Zn  0.29357327  0.99230788  0.03060881     1.49100
Zn142      Zn  0.24616833  0.45976554  0.96851169     1.49500
O143        O  0.26117916  0.49461641  0.99777780    -1.83500
O144        O  0.23500709  0.03459717  0.01501733    -0.74200
O145        O  0.32855227  0.04113685  0.97398092    -0.74000
O146        O  0.27712205  0.98788713  0.07720226    -0.73500
O147        O  0.27732890  0.05707550  0.98481711    -0.74200
O148        O  0.23369126  0.49457888  0.07095572    -0.73800
O149        O  0.33033608  0.03781263  0.02886114    -0.74400
O150        O  0.26529301  0.43587732  0.98185620    -0.73800
O151        O  0.27380390  0.01543801  0.92085119    -0.74500
O152        O  0.29709349  0.46038707  0.02492461    -0.73900
O153        O  0.24933267  0.46872377  0.91806230    -0.74400
O154        O  0.20335001  0.43137987  0.97949456    -0.74300
O155        O  0.18657729  0.45631420  0.01061915    -0.74100
C156        C  0.25741424  0.05862816  0.00244994     0.77700
C157        C  0.33963115  0.05388065  0.00207628     0.78200
C158        C  0.25426775  0.49441307  0.08942333     0.77200
C159        C  0.28266523  0.43703206  0.00573393     0.77500
C160        C  0.25958759  0.49434219  0.90342854     0.78700
C161        C  0.18234877  0.43182179  0.99608344     0.77700
Zn162      Zn  0.22861503  0.24770104  0.03382793     1.49700
Zn163      Zn  0.29025306  0.24284831  0.03882402     1.49400
Zn164      Zn  0.24028878  0.20746241  0.97986750     1.49100
Zn165      Zn  0.28053993  0.27522353  0.97697039     1.49500
O166        O  0.25927550  0.24273943  0.00847818    -1.83500
O167        O  0.23634213  0.24577850  0.08368270    -0.74200
O168        O  0.29203498  0.20283162  0.03097326    -0.74000
O169        O  0.19773621  0.18255993  0.99266291    -0.73500
O170        O  0.27785722  0.24164722  0.08741499    -0.74200
O171        O  0.18513257  0.20955446  0.02623553    -0.73800
O172        O  0.25544714  0.18025905  0.99197796    -0.74400
O173        O  0.26890394  0.26514343  0.92860649    -0.73800
O174        O  0.32911500  0.28525090  0.03485005    -0.74500
O175        O  0.24344965  0.21482686  0.92941193    -0.73900
O176        O  0.32529135  0.29457547  0.98106885    -0.74400
O177        O  0.27385509  0.30830320  0.98970735    -0.74300
O178        O  0.23613242  0.29189555  0.02626387    -0.74100
C179        C  0.25618193  0.24332887  0.10122397     0.77700
C180        C  0.27432437  0.17968022  0.01261893     0.78200
C181        C  0.17860044  0.18458694  0.01111142     0.77200
C182        C  0.25500598  0.23977075  0.91326475     0.77500
C183        C  0.33919462  0.30259859  0.00919334     0.78700
C184        C  0.25719935  0.31342672  0.00900771     0.77700
Zn185      Zn  0.03257781  0.00184997  0.64208516     1.49700
Zn186      Zn  0.49759077  0.46028810  0.69264964     1.49400
Zn187      Zn  0.00082651  0.02372224  0.69616855     1.49100
Zn188      Zn  0.46102511  0.46957725  0.63101916     1.49500
O189        O  0.49459009  0.48895932  0.66212122    -1.83500
O190        O  0.04564387  0.97131563  0.64193264    -0.74200
O191        O  0.49623746  0.47259064  0.74111241    -0.74000
O192        O  0.04487871  0.06063920  0.69012913    -0.73500
O193        O  0.04193701  0.46420709  0.68772634    -0.74200
O194        O  0.06666356  0.03923458  0.66095819    -0.73800
O195        O  0.99892570  0.01540135  0.74653456    -0.74400
O196        O  0.43227684  0.48343484  0.64037974    -0.73800
O197        O  0.45703523  0.41817231  0.68698062    -0.74500
O198        O  0.45425320  0.01985021  0.67615492    -0.73900
O199        O  0.43671646  0.42617262  0.64070685    -0.74400
O200        O  0.47052307  0.47723652  0.58180233    -0.74300
O201        O  0.02623985  0.00901750  0.59397661    -0.74100
C202        C  0.05868603  0.47276264  0.66144735     0.77700
C203        C  0.49409011  0.49415686  0.75489708     0.78200
C204        C  0.06870761  0.06114683  0.67844603     0.77200
C205        C  0.43148804  0.00103543  0.65791701     0.77500
C206        C  0.43515313  0.40957398  0.66540921     0.78700
C207        C  0.49554075  0.49520254  0.56773387     0.77700
Zn208      Zn  0.50170387  0.22559714  0.68605052     1.49700
Zn209      Zn  0.00310935  0.29185561  0.68213143     1.49400
Zn210      Zn  0.03746348  0.27502614  0.62578748     1.49100
Zn211      Zn  0.47066355  0.24338659  0.62699340     1.49500
O212        O  0.50381328  0.25879942  0.65875471    -1.83500
O213        O  0.49977448  0.23399706  0.73571384    -0.74200
O214        O  0.04138247  0.33307883  0.67104399    -0.74000
O215        O  0.06621326  0.26367363  0.64369341    -0.73500
O216        O  0.00651859  0.28473197  0.73190615    -0.74200
O217        O  0.04214208  0.22681656  0.68116595    -0.73800
O218        O  0.06143685  0.31921372  0.62981215    -0.74400
O219        O  0.48041353  0.25722417  0.57913180    -0.73800
O220        O  0.46398921  0.28952418  0.68388597    -0.74500
O221        O  0.02812253  0.26448975  0.57668245    -0.73900
O222        O  0.44130671  0.25318174  0.64489078    -0.74400
O223        O  0.44669432  0.19848998  0.62599636    -0.74300
O224        O  0.45888673  0.18735987  0.67584129    -0.74100
C225        C  0.50298862  0.25696435  0.75225538     0.77700
C226        C  0.06268534  0.33914951  0.64999776     0.78200
C227        C  0.06645895  0.24581121  0.66586012     0.77200
C228        C  0.50382949  0.26139094  0.56338898     0.77500
C229        C  0.44035820  0.27042884  0.66728564     0.78700
C230        C  0.43994765  0.18108298  0.65127030     0.77700
Zn231      Zn  0.28637629  0.02735276  0.69460203     1.49700
Zn232      Zn  0.25011087  0.03849714  0.63400802     1.49400
Zn233      Zn  0.25010517  0.47901742  0.63878930     1.49100
Zn234      Zn  0.21994200  0.50062150  0.69609781     1.49500
O235        O  0.25276448  0.51345521  0.66437738    -1.83500
O236        O  0.31213400  0.07059722  0.68485787    -0.74200
O237        O  0.25033385  0.02590570  0.58453653    -0.74000
O238        O  0.28918683  0.47585174  0.64834723    -0.73500
O239        O  0.29112652  0.08048145  0.64055371    -0.74200
O240        O  0.31274580  0.01095662  0.68397414    -0.73800
O241        O  0.25014162  0.48696519  0.58841385    -0.74400
O242        O  0.18745055  0.46112682  0.68174681    -0.73800
O243        O  0.20622654  0.03250409  0.64209745    -0.74500
O244        O  0.20749351  0.44134667  0.64722516    -0.73900
O245        O  0.20203392  0.52737130  0.69421213    -0.74400
O246        O  0.22862673  0.49536225  0.74416584    -0.74300
O247        O  0.27843751  0.02061183  0.74419724    -0.74100
C248        C  0.31333728  0.08825754  0.66155767     0.77700
C249        C  0.25151257  0.50847907  0.57040615     0.78200
C250        C  0.31270321  0.49366820  0.66621428     0.77200
C251        C  0.18487687  0.43954147  0.66342610     0.77500
C252        C  0.19061131  0.02489526  0.66929192     0.78700
C253        C  0.25398214  0.50725687  0.75957835     0.77700
Zn254      Zn  0.27921518  0.26782256  0.64363777     1.49700
Zn255      Zn  0.21201596  0.22700136  0.64749104     1.49400
Zn256      Zn  0.25266436  0.21485215  0.69961423     1.49100
Zn257      Zn  0.24865426  0.27654304  0.70597298     1.49500
O258        O  0.24736330  0.24561813  0.67522233    -1.83500
O259        O  0.26948974  0.25483267  0.59509685    -0.74200
O260        O  0.18662591  0.18499920  0.66182631    -0.74000
O261        O  0.29531534  0.22169183  0.68920858    -0.73500
O262        O  0.21929472  0.22875106  0.59733906    -0.74200
O263        O  0.31391156  0.26410577  0.65854375    -0.73800
O264        O  0.21424757  0.17178510  0.69399915    -0.74400
O265        O  0.24791085  0.26297921  0.75363141    -0.73800
O266        O  0.18579755  0.24323285  0.65929227    -0.74500
O267        O  0.25401258  0.22274847  0.74964646    -0.73900
O268        O  0.20897086  0.27855989  0.69944838    -0.74400
O269        O  0.29168909  0.31485355  0.70188339    -0.74300
O270        O  0.29314568  0.31172017  0.64696958    -0.74100
C271        C  0.24373024  0.24012446  0.58044789     0.77700
C272        C  0.18890073  0.16582897  0.68024161     0.78200
C273        C  0.31760808  0.24495143  0.67547340     0.77200
C274        C  0.25114987  0.24205624  0.76739505     0.77500
C275        C  0.18570853  0.26158391  0.68086722     0.78700
C276        C  0.30647899  0.32405151  0.67449144     0.77700
C277        C  0.40768100  0.15597091  0.65350347    -0.04900
C278        C  0.39272131  0.15051698  0.68445404    -0.32300
C279        C  0.36111045  0.13122332  0.68661707     0.36900
C280        C  0.34349580  0.11628578  0.65766999    -0.05200
C281        C  0.35821783  0.12241334  0.62649373    -0.32200
C282        C  0.38988454  0.14206464  0.62424337     0.41700
H283        H  0.40546313  0.16197431  0.70703994     0.17200
O284        O  0.34766797  0.12628002  0.71754211    -0.59700
H285        H  0.34546410  0.11056647  0.60406184     0.17200
O286        O  0.40327040  0.14722633  0.59326801    -0.59800
H287        H  0.41006738  0.13203890  0.59118708     0.44200
H288        H  0.33931487  0.14025738  0.71854151     0.44200
C289        C  0.09203723  0.36814173  0.65156895    -0.04900
C290        C  0.10296354  0.38225391  0.68295477    -0.32300
C291        C  0.13359374  0.40429365  0.68746565     0.36900
C292        C  0.15397333  0.41299691  0.66021921    -0.05200
C293        C  0.14300266  0.39959004  0.62863932    -0.32200
C294        C  0.11236309  0.37738104  0.62413437     0.36900
H295        H  0.08815671  0.37498166  0.70459417     0.17200
O296        O  0.14348593  0.41698356  0.71883408    -0.59700
H297        H  0.15802458  0.40683313  0.60718048     0.17200
O298        O  0.10240219  0.36489047  0.59269706    -0.59800
H299        H  0.11072104  0.35106718  0.58923951     0.44200
H300        H  0.15181724  0.40495504  0.72950611     0.44200
C301        C  0.40993699  0.26510401  0.67515110    -0.04900
C302        C  0.38615547  0.23461964  0.67668398    -0.32300
C303        C  0.35588601  0.22751099  0.67855764     0.36900
C304        C  0.34906495  0.25109752  0.67889971    -0.05200
C305        C  0.37301475  0.28166883  0.67950163    -0.32200
C306        C  0.40337964  0.28875732  0.67771214     0.36900
H307        H  0.39103514  0.21611975  0.67512125     0.17200
O308        O  0.33321014  0.19756776  0.67818976    -0.59700
H309        H  0.36811238  0.30016741  0.68024634     0.17200
O310        O  0.42617476  0.31862182  0.67675433    -0.59800
H311        H  0.42705573  0.32485905  0.65292745     0.44200
H312        H  0.32990291  0.19151859  0.65409290     0.44200
C313        C  0.09677891  0.25003328  0.67481333    -0.04900
C314        C  0.12259500  0.27920227  0.67026094    -0.32300
C315        C  0.15209721  0.28433624  0.67546727     0.36900
C316        C  0.15626206  0.26012614  0.68500461    -0.05200
C317        C  0.13060885  0.23146382  0.69165078    -0.32200
C318        C  0.10099542  0.22637753  0.68695948     0.36900
H319        H  0.11996529  0.29809018  0.66175108     0.17200
O320        O  0.17658745  0.31230258  0.66834068    -0.59700
H321        H  0.13362340  0.21249966  0.69886904     0.17200
O322        O  0.07659636  0.19798908  0.69274121    -0.59800
H323        H  0.07280534  0.18682073  0.67112166     0.44200
H324        H  0.18254332  0.32336462  0.69017151     0.44200
C325        C  0.34016668  0.34543627  0.67404424    -0.04900
C326        C  0.35549338  0.34914115  0.64350664    -0.32300
C327        C  0.38713576  0.36680604  0.64150381     0.36900
C328        C  0.40478880  0.38206542  0.67016872    -0.05200
C329        C  0.38989116  0.37739492  0.70119318    -0.32200
C330        C  0.35790458  0.35927219  0.70330701     0.36900
H331        H  0.34293289  0.33827525  0.62063462     0.17200
O332        O  0.40052605  0.37062782  0.61067641    -0.59700
H333        H  0.40279782  0.38953287  0.72342460     0.17200
O334        O  0.34434227  0.35577296  0.73394722    -0.59800
H335        H  0.34086759  0.37330864  0.73599766     0.44200
H336        H  0.40465125  0.35354177  0.60857375     0.44200
C337        C  0.09996028  0.08728919  0.68451744    -0.04900
C338        C  0.12543034  0.08373514  0.67793599    -0.32300
C339        C  0.15524348  0.10861867  0.67930616     0.36900
C340        C  0.15996488  0.13762613  0.68701355    -0.05200
C341        C  0.13487900  0.14078053  0.69603154    -0.32200
C342        C  0.10516540  0.11601174  0.69494391     0.36900
H343        H  0.12225191  0.06174369  0.67054680     0.17200
O344        O  0.17915333  0.10481438  0.67025947    -0.59700
H345        H  0.13824331  0.16307096  0.70234750     0.17200
O346        O  0.08143756  0.12056254  0.70264678    -0.59800
H347        H  0.07611900  0.12699646  0.68125035     0.44200
H348        H  0.18372211  0.09618532  0.69043345     0.44200
C349        C  0.40169184  0.00010086  0.65891328    -0.04900
C350        C  0.39219817  0.00696763  0.68901492    -0.32300
C351        C  0.36241587  0.00152148  0.69243491     0.36900
C352        C  0.34147776  0.49266165  0.66542124    -0.05200
C353        C  0.35015112  0.48401866  0.63593855    -0.32200
C354        C  0.37975495  0.48885829  0.63257737     0.36900
H355        H  0.40761811  0.01568322  0.71045102     0.17200
O356        O  0.35429647  0.00850811  0.72256853    -0.59700
H357        H  0.33435083  0.47456715  0.61490226     0.17200
O358        O  0.38716345  0.48002932  0.60317429    -0.59800
H359        H  0.39608857  0.49838900  0.58872611     0.44200
H360        H  0.34497980  0.98927038  0.73555536     0.44200
C361        C  0.09239518  0.48509441  0.66327436    -0.04900
C362        C  0.10918888  0.49226409  0.63319065    -0.32300
C363        C  0.14122006  0.50832725  0.63339065     0.36900
C364        C  0.15676476  0.01262627  0.66916851    -0.05200
C365        C  0.14007315  0.99922323  0.69878781    -0.32200
C366        C  0.10802370  0.98390829  0.69912833     0.36900
H367        H  0.09743159  0.48564077  0.60909322     0.17200
O368        O  0.15615195  0.51400120  0.60333248    -0.59700
H369        H  0.15186558  0.00008639  0.72200057     0.17200
O370        O  0.09324187  0.97122291  0.72860567    -0.59800
H371        H  0.09336316  0.98816622  0.74121357     0.44200
H372        H  0.15634774  0.49501459  0.59780917     0.44200
C373        C  0.25284007  0.23958247  0.87610575    -0.04900
C374        C  0.25451667  0.21701412  0.85736650    -0.32300
C375        C  0.25416020  0.21742685  0.82205231     0.36900
C376        C  0.25165475  0.24052846  0.80480158    -0.05200
C377        C  0.24959950  0.26282580  0.82381004    -0.32200
C378        C  0.25042090  0.26263294  0.85898618     0.36900
H379        H  0.25681858  0.19935733  0.87013967     0.17200
O380        O  0.25691405  0.19548796  0.80484647    -0.59700
H381        H  0.24748599  0.28075206  0.81145013     0.17200
O382        O  0.24777002  0.28454284  0.87642534    -0.59800
H383        H  0.26833503  0.30284376  0.87614711     0.44200
H384        H  0.23584690  0.17817692  0.80229547     0.44200
C385        C  0.28156399  0.40818105  0.01326487    -0.04900
C386        C  0.25657781  0.38642652  0.03175678    -0.32300
C387        C  0.24802939  0.35545997  0.03090656     0.36900
C388        C  0.26476664  0.34584672  0.01147289    -0.05200
C389        C  0.29065890  0.36819880  0.99420733    -0.32200
C390        C  0.29885405  0.39893745  0.99480378     0.36900
H391        H  0.24241041  0.39322811  0.04518846     0.17200
O392        O  0.22287926  0.33489402  0.04830792    -0.59700
H393        H  0.30445007  0.36190111  0.97930568     0.17200
O394        O  0.32249559  0.41940457  0.97541488    -0.59800
H395        H  0.34111280  0.42498809  0.98891586     0.44200
H396        H  0.20545850  0.32907006  0.03264792     0.44200
C397        C  0.26199194  0.08963718  0.00877175    -0.04900
C398        C  0.29140419  0.11530772  0.00496440    -0.32300
C399        C  0.29662783  0.14512011  0.00860185     0.36900
C400        C  0.27233789  0.14973321  0.01618214    -0.05200
C401        C  0.24330474  0.12422293  0.02143168    -0.32200
C402        C  0.23803646  0.09445141  0.01797568     0.36900
H403        H  0.31045962  0.11234576  0.99847244     0.17200
O404        O  0.32513134  0.16945341  0.00326482    -0.59700
H405        H  0.22423610  0.12746437  0.02701803     0.17200
O406        O  0.20921458  0.07039857  0.02252229    -0.59800
H407        H  0.19900017  0.06691406  0.00021959     0.44200
H408        H  0.32694144  0.17182532  0.97846492     0.44200
C409        C  0.25519838  0.50277811  0.79615035    -0.04900
C410        C  0.28102882  0.02043455  0.81503760    -0.32300
C411        C  0.28317044  0.01761585  0.84974902     0.36900
C412        C  0.25873337  0.49640529  0.86637145    -0.05200
C413        C  0.23511976  0.47310071  0.84736932    -0.32200
C414        C  0.23313489  0.47621445  0.81247290     0.36900
H415        H  0.29913997  0.04008820  0.80260408     0.17200
O416        O  0.30839888  0.03944917  0.86664133    -0.59700
H417        H  0.21779750  0.45280007  0.85966921     0.17200
O418        O  0.20961240  0.45319485  0.79463348    -0.59800
H419        H  0.21734513  0.43959857  0.78741929     0.44200
H420        H  0.32281542  0.03161313  0.86720221     0.44200
C421        C  0.35987276  0.08803601  0.00234705    -0.04900
C422        C  0.37013299  0.10278755  0.97124641    -0.32300
C423        C  0.38461972  0.13451769  0.96822566     0.36900
C424        C  0.39044284  0.15337982  0.99688474    -0.05200
C425        C  0.38031429  0.13878248  0.02829370    -0.32200
C426        C  0.36502138  0.10656242  0.03111781     0.36900
H427        H  0.36632190  0.08954967  0.94846432     0.17200
O428        O  0.39360279  0.14673365  0.93675316    -0.59700
H429        H  0.38455284  0.15235591  0.05087137     0.17200
O430        O  0.35433694  0.09355525  0.06191139    -0.59800
H431        H  0.37116451  0.09168092  0.07236559     0.44200
H432        H  0.37576564  0.14714907  0.92688327     0.44200
C433        C  0.09742979  0.34613534  0.99629119    -0.04900
C434        C  0.12517238  0.34651494  0.99680271    -0.32300
C435        C  0.15280666  0.37426102  0.99771834     0.36900
C436        C  0.15311004  0.40244203  0.99854439    -0.05200
C437        C  0.12535078  0.40193300  0.00040333    -0.32200
C438        C  0.09772948  0.37420733  0.99905076     0.36900
H439        H  0.12550687  0.32533000  0.99550865     0.17200
O440        O  0.17949779  0.37355253  0.99866654    -0.59700
H441        H  0.12497934  0.42309047  0.00185165     0.17200
O442        O  0.07102478  0.37474862  0.00130392    -0.59800
H443        H  0.06762405  0.38084602  0.97865501     0.44200
H444        H  0.18261456  0.36889918  0.97527634     0.44200
C445        C  0.50173722  0.25601842  0.78988070    -0.04900
C446        C  0.50823777  0.28247785  0.80796915    -0.32300
C447        C  0.50582956  0.28223087  0.84311633     0.36900
C448        C  0.99743710  0.26122049  0.85687283    -0.05200
C449        C  0.98985456  0.23433758  0.83903115    -0.32200
C450        C  0.99233082  0.23424859  0.80397322     0.36900
H451        H  0.51498201  0.30361179  0.79481892     0.17200
O452        O  0.51221155  0.30874731  0.85920435    -0.59700
H453        H  0.98176052  0.21299519  0.85224737     0.17200
O454        O  0.98379116  0.20710435  0.78801945    -0.59800
H455        H  0.00198379  0.20465521  0.78910225     0.44200
H456        H  0.49274209  0.30888356  0.85917907     0.44200
C457        C  0.40472468  0.39808848  0.00547997    -0.04900
C458        C  0.40544768  0.37722184  0.98243592    -0.32300
C459        C  0.38618828  0.34586967  0.98544904     0.36900
C460        C  0.36521922  0.33411591  0.01176701    -0.05200
C461        C  0.36488921  0.35450297  0.03568295    -0.32200
C462        C  0.38438271  0.38628093  0.03266720     0.36900
H463        H  0.42100724  0.38513737  0.96146465     0.17200
O464        O  0.38721716  0.32687293  0.96156405    -0.59700
H465        H  0.34836166  0.34591354  0.05572397     0.17200
O466        O  0.38348422  0.40535890  0.05650320    -0.59800
H467        H  0.36684092  0.40898209  0.04904713     0.44200
H468        H  0.39826930  0.31757611  0.97254384     0.44200
C469        C  0.09595793  0.09755049  0.01360919    -0.04900
C470        C  0.09453682  0.12474404  0.01169003    -0.32300
C471        C  0.12095419  0.15359215  0.01298166     0.36900
C472        C  0.14949418  0.15571717  0.01597118    -0.05200
C473        C  0.15078173  0.12868207  0.01995277    -0.32200
C474        C  0.12443010  0.09989314  0.01901519     0.36900
H475        H  0.07279464  0.12366703  0.00840610     0.17200
O476        O  0.11865074  0.17931277  0.00977522    -0.59700
H477        H  0.17261306  0.12985910  0.02278160     0.17200
O478        O  0.12698684  0.07431200  0.02209683    -0.59800
H479        H  0.13107161  0.06986657  0.99903054     0.44200
H480        H  0.11933858  0.18311269  0.98520801     0.44200
C481        C  0.47214670  0.34371028  0.00130363    -0.04900
C482        C  0.48242233  0.36004510  0.03184993    -0.32300
C483        C  0.49687663  0.39224395  0.03255214     0.36900
C484        C  0.97747132  0.39882601  0.00210035    -0.05200
C485        C  0.95270553  0.37578804  0.98348268    -0.32200
C486        C  0.94572433  0.34545376  0.98475169     0.36900
H487        H  0.48138352  0.34807080  0.05485250     0.17200
O488        O  0.50707637  0.40719639  0.06276554    -0.59700
H489        H  0.93907524  0.38127642  0.96688046     0.17200
O490        O  0.92336663  0.32430218  0.96404272    -0.59800
H491        H  0.90472960  0.31485794  0.97789592     0.44200
H492        H  0.52834698  0.41144135  0.06510318     0.44200
C493        C  0.47989569  0.09381052  0.00651776    -0.04900
C494        C  0.98345794  0.11329166  0.03332279    -0.32300
C495        C  0.99358205  0.14451437  0.02899357     0.36900
C496        C  0.98768555  0.15490238  0.99840159    -0.05200
C497        C  0.46098126  0.12876384  0.99892451    -0.32200
C498        C  0.45564460  0.09884423  0.99988880     0.36900
H499        H  0.99005704  0.10596642  0.05593856     0.17200
O500        O  0.00951310  0.16454811  0.05455032    -0.59700
H501        H  0.44207570  0.13221303  0.99274153     0.17200
O502        O  0.42716440  0.07495736  0.99265528    -0.59800
H503        H  0.42589421  0.07361180  0.96770813     0.44200
H504        H  0.99387098  0.16556161  0.06843144     0.44200
C505        C  0.49539062  0.50134543  0.86388537    -0.04900
C506        C  0.48487083  0.47292911  0.84792875    -0.32300
C507        C  0.48418539  0.47023277  0.81274978     0.36900
C508        C  0.49371490  0.49614954  0.79234367    -0.05200
C509        C  0.01075167  0.02472690  0.81781931    -0.32200
C510        C  0.00994237  0.02757457  0.85298384     0.36900
H511        H  0.47744074  0.45251085  0.86275885     0.17200
O512        O  0.47330560  0.44191722  0.79862897    -0.59700
H513        H  0.02273040  0.04520442  0.80288806     0.17200
O514        O  0.02463491  0.05614542  0.86708967    -0.59800
H515        H  0.00956062  0.06316019  0.86650431     0.44200
H516        H  0.49069413  0.43815924  0.79922600     0.44200
C517        C  0.24037666  0.23149741  0.47199899    -0.04900
C518        C  0.21587177  0.23015185  0.48967685    -0.32300
C519        C  0.21651366  0.23242933  0.52480500     0.36900
C520        C  0.24219953  0.23658899  0.54323540    -0.05200
C521        C  0.26687290  0.23812891  0.52564454    -0.32200
C522        C  0.26597638  0.23526413  0.49040228     0.36900
H523        H  0.19594569  0.22732640  0.47620429     0.17200
O524        O  0.19246498  0.23210172  0.54068414    -0.59700
H525        H  0.28693528  0.24147179  0.53924825     0.17200
O526        O  0.29077120  0.23753640  0.47419666    -0.59800
H527        H  0.28857654  0.21700642  0.47585316     0.44200
H528        H  0.17694528  0.21025083  0.54285633     0.44200
C529        C  0.24676450  0.23864467  0.20933951    -0.04900
C530        C  0.27585448  0.25334101  0.19499066    -0.32300
C531        C  0.27936627  0.25481179  0.15987264     0.36900
C532        C  0.25352668  0.24200368  0.13844620    -0.05200
C533        C  0.22451409  0.22784147  0.15287131    -0.32200
C534        C  0.22100640  0.22587591  0.18787303     0.36900
H535        H  0.29593524  0.26330188  0.21105835     0.17200
O536        O  0.30813221  0.26905796  0.14682574    -0.59700
H537        H  0.20436397  0.21786481  0.13690907     0.17200
O538        O  0.19221096  0.21166586  0.20083189    -0.59800
H539        H  0.18682383  0.22789579  0.20302351     0.44200
H540        H  0.31340472  0.29053771  0.14353165     0.44200
C541        C  0.25030111  0.50519209  0.53275618    -0.04900
C542        C  0.23658018  0.47586223  0.51829274    -0.32300
C543        C  0.23425493  0.47150685  0.48317918     0.36900
C544        C  0.24602054  0.49670252  0.46124829    -0.05200
C545        C  0.26278368  0.02100674  0.47670887    -0.32200
C546        C  0.26413438  0.02484209  0.51197698     0.36900
H547        H  0.22712817  0.45596972  0.53432469     0.17200
O548        O  0.22044645  0.44237149  0.47063896    -0.59700
H549        H  0.27492362  0.04095615  0.46103605     0.17200
O550        O  0.28109441  0.05356291  0.52529880    -0.59800
H551        H  0.30154345  0.05614418  0.52957811     0.44200
H552        H  0.23673120  0.43697655  0.46993456     0.44200
C553        C  0.22023217  0.37682285  0.33437134    -0.04900
C554        C  0.23923395  0.37332266  0.31101841    -0.32300
C555        C  0.24708190  0.35064606  0.31443226     0.36900
C556        C  0.23570804  0.33012733  0.34135803    -0.05200
C557        C  0.21577183  0.33272466  0.36410431    -0.32200
C558        C  0.20822604  0.35585129  0.36093111     0.36900
H559        H  0.24900135  0.38883474  0.29007479     0.17200
O560        O  0.26578892  0.34877428  0.29101335    -0.59700
H561        H  0.20592426  0.31674741  0.38464466     0.17200
O562        O  0.18919220  0.35764533  0.38392023    -0.59800
H563        H  0.20248876  0.36925870  0.40323850     0.44200
H564        H  0.25200827  0.33553690  0.27282712     0.44200
C565        C  0.23804499  0.07996405  0.32657236    -0.04900
C566        C  0.23727163  0.09104573  0.35853836    -0.32300
C567        C  0.22698642  0.11179429  0.36280186     0.36900
C568        C  0.21750753  0.12232947  0.33465617    -0.05200
C569        C  0.21766198  0.11065295  0.30266612    -0.32200
C570        C  0.22757718  0.08948542  0.29853855     0.36900
H571        H  0.24373789  0.08284741  0.38055964     0.17200
O572        O  0.22628561  0.12172703  0.39475990    -0.59700
H573        H  0.21154221  0.11904327  0.28056164     0.17200
O574        O  0.22797438  0.07898940  0.26680521    -0.59800
H575        H  0.20655013  0.06337810  0.26172168     0.44200
H576        H  0.24789005  0.13561922  0.40121928     0.44200
C577        C  0.25072026  0.49263443  0.12647679    -0.04900
C578        C  0.22453171  0.98477102  0.14085033    -0.32300
C579        C  0.21973065  0.98203758  0.17564084     0.36900
C580        C  0.24262004  0.48886565  0.19712222    -0.05200
C581        C  0.26174856  0.47979298  0.18189566    -0.32200
C582        C  0.26610274  0.48186950  0.14708910     0.36900
H583        H  0.20995686  0.98975718  0.12521999     0.17200
O584        O  0.19644032  0.98515758  0.18851740    -0.59700
H585        H  0.27354874  0.47102504  0.19699390     0.17200
O586        O  0.28456796  0.47218131  0.13344805    -0.59800
H587        H  0.30555680  0.48958036  0.13624668     0.44200
H588        H  0.20474531  0.00743627  0.19072126     0.44200
C589        C  0.50315237  0.26296830  0.45503717    -0.04900
C590        C  0.02412097  0.25427413  0.46971175    -0.32300
C591        C  0.02248012  0.25179128  0.50479144     0.36900
C592        C  0.50362703  0.26164945  0.52618480    -0.05200
C593        C  0.48467278  0.26996488  0.50873443    -0.32200
C594        C  0.48431538  0.27067450  0.47349191     0.36900
H595        H  0.03689277  0.24569657  0.45647961     0.17200
O596        O  0.03667881  0.23831616  0.52101726    -0.59700
H597        H  0.47029533  0.27629062  0.52246408     0.17200
O598        O  0.46559504  0.27910022  0.45750584    -0.59800
H599        H  0.44636073  0.25978649  0.45313138     0.44200
H600        H  0.02096280  0.21653008  0.52288012     0.44200
C601        C  0.39666090  0.24138230  0.31988611    -0.04900
C602        C  0.39729150  0.26954629  0.31781022    -0.32300
C603        C  0.37081829  0.27151497  0.32098208     0.36900
C604        C  0.34289087  0.24512838  0.32706650    -0.05200
C605        C  0.34193578  0.21669564  0.32718668    -0.32200
C606        C  0.36845624  0.21470044  0.32345144     0.36900
H607        H  0.41876971  0.29047116  0.31471929     0.17200
O608        O  0.37294198  0.29956088  0.32035207    -0.59700
H609        H  0.32053470  0.19584033  0.33088601     0.17200
O610        O  0.36667539  0.18681662  0.32484321    -0.59800
H611        H  0.36754985  0.18281556  0.34915294     0.44200
H612        H  0.37128182  0.30360458  0.29620841     0.44200
C613        C  0.11191681  0.26851032  0.32078163    -0.04900
C614        C  0.11974168  0.26199148  0.35252884    -0.32300
C615        C  0.13361645  0.24422553  0.35618633     0.36900
C616        C  0.14073872  0.23229043  0.32767847    -0.05200
C617        C  0.13341999  0.23911559  0.29563410    -0.32200
C618        C  0.11890545  0.25669815  0.29206192     0.36900
H619        H  0.11446411  0.27017849  0.37523995     0.17200
O620        O  0.13995297  0.23865987  0.38820822    -0.59700
H621        H  0.13907032  0.23093694  0.27318553     0.17200
O622        O  0.11143013  0.26183127  0.26041660    -0.59800
H623        H  0.09142256  0.24369174  0.25511596     0.44200
H624        H  0.15931469  0.25710087  0.39474724     0.44200
C625        C  0.00431688  0.26279874  0.19008464    -0.04900
C626        C  0.47135709  0.23563263  0.17876168    -0.32300
C627        C  0.46868569  0.23478172  0.14359714     0.36900
C628        C  0.99737375  0.25863006  0.11903014    -0.05200
C629        C  0.02587213  0.27780669  0.13390500    -0.32200
C630        C  0.02948620  0.28014023  0.16897050     0.36900
H631        H  0.45115671  0.22219005  0.19356516     0.17200
O632        O  0.44076753  0.21642731  0.12889783    -0.59700
H633        H  0.04548442  0.29123256  0.11825145     0.17200
O634        O  0.05784438  0.29940648  0.18217773    -0.59800
H635        H  0.06779476  0.28689045  0.18428741     0.44200
H636        H  0.43981159  0.19662462  0.12508095     0.44200
C637        C  0.50090329  0.50738809  0.46083943    -0.04900
C638        C  0.47447947  0.50211518  0.47748754    -0.32300
C639        C  0.47204423  0.49759563  0.51238934     0.36900
C640        C  0.49674376  0.49949079  0.53101505    -0.05200
C641        C  0.02819443  0.00430587  0.52240005    -0.32200
C642        C  0.03038628  0.00829850  0.48754816     0.36900
H643        H  0.45549881  0.50082143  0.46332985     0.17200
O644        O  0.44594528  0.49239390  0.52814102    -0.59700
H645        H  0.04538156  0.00148849  0.53568966     0.17200
O646        O  0.05468831  0.00938853  0.47137794    -0.59800
H647        H  0.04914822  0.98781558  0.46807833     0.44200
H648        H  0.43126784  0.47043608  0.52452576     0.44200
C649        C  0.50778234  0.41682536  0.31567612    -0.04900
C650        C  0.04153689  0.42277815  0.33540786    -0.32300
C651        C  0.05204786  0.40226537  0.33122562     0.36900
C652        C  0.03842779  0.37904465  0.30713119    -0.05200
C653        C  0.49269985  0.36522530  0.29854315    -0.32200
C654        C  0.48597522  0.38877553  0.30165501     0.36900
H655        H  0.05259810  0.44015624  0.35464827     0.17200
O656        O  0.07449397  0.40395635  0.35222182    -0.59700
H657        H  0.47501344  0.34310444  0.28967551     0.17200
O658        O  0.45764645  0.38357317  0.29245804    -0.59800
H659        H  0.44500710  0.37517156  0.31283375     0.44200
H660        H  0.06419532  0.39456176  0.37366375     0.44200
C661        C  0.51191167  0.16564038  0.32403736    -0.04900
C662        C  0.04431558  0.17645824  0.31423878    -0.32300
C663        C  0.05043387  0.15247220  0.31760030     0.36900
C664        C  0.02633404  0.12290962  0.32290924    -0.05200
C665        C  0.50820244  0.12026216  0.29822960    -0.32200
C666        C  0.49972514  0.14278159  0.29902429     0.36900
H667        H  0.06326039  0.19943442  0.31178608     0.17200
O668        O  0.07990975  0.15837423  0.31736394    -0.59700
H669        H  0.49729964  0.10184506  0.28006855     0.17200
O670        O  0.47907948  0.14173841  0.27576511    -0.59800
H671        H  0.49147932  0.15437376  0.25669884     0.44200
H672        H  0.08744972  0.16432868  0.34083788     0.44200
C673        C  0.34499555  0.99970570  0.32657421    -0.04900
C674        C  0.36713911  0.01727346  0.35075986    -0.32300
C675        C  0.39387777  0.01568254  0.35419201     0.36900
C676        C  0.39749937  0.49692090  0.33317702    -0.05200
C677        C  0.37921704  0.48756991  0.30409800    -0.32200
C678        C  0.35357239  0.49117804  0.30129954     0.36900
H679        H  0.36348862  0.03186839  0.36769384     0.17200
O680        O  0.41461435  0.03341533  0.37847852    -0.59700
H681        H  0.38532501  0.47829283  0.28294095     0.17200
O682        O  0.33689957  0.48235429  0.27187812    -0.59800
H683        H  0.32452906  0.45981967  0.27299662     0.44200
H684        H  0.42679744  0.05377225  0.36805664     0.44200
C685        C  0.10938692  0.01759725  0.33718920    -0.04900
C686        C  0.10565094  0.49818794  0.30294727    -0.32300
C687        C  0.12040139  0.48091772  0.30321164     0.36900
C688        C  0.13643299  0.48006840  0.33218795    -0.05200
C689        C  0.13842460  0.99659865  0.36456879    -0.32200
C690        C  0.12454151  0.01468290  0.36581746     0.36900
H691        H  0.09299120  0.49765335  0.28058416     0.17200
O692        O  0.11910881  0.46503893  0.27470589    -0.59700
H693        H  0.15086195  0.99583665  0.38652366     0.17200
O694        O  0.12602168  0.02947679  0.39528603    -0.59800
H695        H  0.14362033  0.05034060  0.39268624     0.44200
H696        H  0.10083787  0.44463993  0.27741850     0.44200
C697        C  0.49920576  0.51147496  0.20000617    -0.04900
C698        C  0.03219567  0.02640179  0.18779359    -0.32300
C699        C  0.03017580  0.02437562  0.15248610     0.36900
C700        C  0.49782126  0.50976446  0.12844046    -0.05200
C701        C  0.47067796  0.49569890  0.14686364    -0.32200
C702        C  0.47119825  0.49616915  0.18227302     0.36900
H703        H  0.05438812  0.03612840  0.19981033     0.17200
O704        O  0.05637328  0.03556413  0.13418802    -0.59700
H705        H  0.44894851  0.48357848  0.13382691     0.17200
O706        O  0.44416082  0.48210961  0.19918177    -0.59800
H707        H  0.43812261  0.46024077  0.19972517     0.44200
H708        H  0.06135977  0.01897113  0.13389243     0.44200
Zn709      Zn  0.49191573  0.53425217  0.35965827     1.49700
Zn710      Zn  0.47405309  0.98016686  0.30360814     1.49400
Zn711      Zn  0.03894132  0.54191770  0.29854105     1.49100
Zn712      Zn  0.03298068  0.00559436  0.36810950     1.49500
O713        O  0.00735750  0.51399542  0.32937136    -1.83500
O714        O  0.44957104  0.01582232  0.35281797    -0.74200
O715        O  0.48016045  0.99270707  0.25471266    -0.74000
O716        O  0.04223084  0.58459825  0.30380943    -0.73500
O717        O  0.43296374  0.97761325  0.31610032    -0.74200
O718        O  0.00810831  0.57503560  0.34417015    -0.73800
O719        O  0.02474869  0.52921710  0.25004397    -0.74400
O720        O  0.07328460  0.52837055  0.35991220    -0.73800
O721        O  0.47946417  0.94191196  0.30332525    -0.74500
O722        O  0.07585081  0.53443724  0.30500623    -0.73900
O723        O  0.51817056  0.95784643  0.33957686    -0.74400
O724        O  0.02069524  0.00163720  0.41591067    -0.74300
O725        O  0.49494397  0.52770930  0.40932932    -0.74100
C726        C  0.42842320  0.99577675  0.33455631     0.77700
C727        C  0.50112886  0.51169355  0.23749624     0.78200
C728        C  0.02596425  0.59218573  0.32154560     0.77200
C729        C  0.08528210  0.52807162  0.33219654     0.77500
C730        C  0.50102879  0.93930559  0.31714959     0.78700
C731        C  0.01016043  0.01555158  0.43263966     0.77700
Zn732      Zn  0.03014649  0.75541626  0.35342061     1.49700
Zn733      Zn  0.04018254  0.79522766  0.29212708     1.49400
Zn734      Zn  0.47687704  0.72851239  0.29955988     1.49100
Zn735      Zn  0.49145688  0.78413503  0.34956669     1.49500
O736        O  0.50838136  0.76468655  0.32372698    -1.83500
O737        O  0.07425836  0.78405736  0.35139290    -0.74200
O738        O  0.02526737  0.78278689  0.24472119    -0.74000
O739        O  0.48529207  0.69281327  0.30924590    -0.73500
O740        O  0.07735252  0.78818211  0.29655927    -0.74200
O741        O  0.52331088  0.71476886  0.34652323    -0.73800
O742        O  0.48379118  0.73556175  0.24904483    -0.74400
O743        O  0.44882025  0.76607260  0.33834719    -0.73800
O744        O  0.04519915  0.83832599  0.29816559    -0.74500
O745        O  0.43363284  0.72373627  0.30834996    -0.73900
O746        O  0.01162379  0.82934014  0.33892365    -0.74400
O747        O  0.49482279  0.78317104  0.40037554    -0.74300
O748        O  0.01864715  0.75302329  0.40134682    -0.74100
C749        C  0.08662426  0.78283569  0.32435368     0.77700
C750        C  0.00158001  0.76092680  0.23117618     0.78200
C751        C  0.50649819  0.69273721  0.32714082     0.77200
C752        C  0.42829230  0.74338293  0.32250638     0.77500
C753        C  0.03033987  0.84673695  0.31708838     0.78700
C754        C  0.50526854  0.76945136  0.41801696     0.77700
Zn755      Zn  0.20467464  0.95204443  0.36272257     1.49700
Zn756      Zn  0.25018605  0.95929316  0.30186739     1.49400
Zn757      Zn  0.21352821  0.49504979  0.29793061     1.49100
Zn758      Zn  0.26835454  0.51966835  0.35399782     1.49500
O759        O  0.23489527  0.97921974  0.32990670    -1.83500
O760        O  0.20004348  0.90855138  0.35806589    -0.74200
O761        O  0.24625273  0.96133789  0.25157545    -0.74000
O762        O  0.16887642  0.96788286  0.30314630    -0.73500
O763        O  0.23249533  0.91752049  0.31627262    -0.74200
O764        O  0.16839722  0.96058537  0.35802146    -0.73800
O765        O  0.22435179  0.49716832  0.24912161    -0.74400
O766        O  0.26137438  0.55621614  0.34443567    -0.73800
O767        O  0.29473763  0.48224104  0.31036584    -0.74500
O768        O  0.22029214  0.53500099  0.31090322    -0.73900
O769        O  0.31062863  0.52227898  0.34421643    -0.74400
O770        O  0.26247972  0.51396102  0.40496948    -0.74300
O771        O  0.22006682  0.96552819  0.41081517    -0.74100
C772        C  0.21480015  0.90018308  0.33879426     0.77700
C773        C  0.23499852  0.97427471  0.23396507     0.78200
C774        C  0.15825251  0.96776343  0.33195924     0.77200
C775        C  0.23945661  0.55704227  0.32885023     0.77500
C776        C  0.31572558  0.50365323  0.32728833     0.78700
C777        C  0.24288074  0.98874751  0.42398062     0.77700
Zn778      Zn  0.22606486  0.75417626  0.37840533     1.49700
Zn779      Zn  0.20919030  0.70830592  0.31678152     1.49400
Zn780      Zn  0.27399916  0.77063945  0.32002205     1.49100
Zn781      Zn  0.25939870  0.71998792  0.37515141     1.49500
O782        O  0.24218594  0.73765272  0.34628397    -1.83500
O783        O  0.18688978  0.74797096  0.36219679    -0.74200
O784        O  0.22313530  0.71686774  0.26840362    -0.74000
O785        O  0.26671935  0.80696550  0.32748981    -0.73500
O786        O  0.17220795  0.71619410  0.31856854    -0.74200
O787        O  0.25087780  0.79898185  0.38014083    -0.73800
O788        O  0.26673602  0.76065629  0.27006510    -0.74400
O789        O  0.30057838  0.73194547  0.36012421    -0.73800
O790        O  0.20322213  0.66514908  0.32650768    -0.74500
O791        O  0.31568965  0.77267538  0.32779253    -0.73900
O792        O  0.23817139  0.67640494  0.36681151    -0.74400
O793        O  0.25877616  0.72735787  0.42504224    -0.74300
O794        O  0.22259350  0.73947941  0.42553894    -0.74100
C795        C  0.16841349  0.73409452  0.33822654     0.77700
C796        C  0.24585764  0.73836578  0.25350063     0.78200
C797        C  0.25548195  0.81348295  0.35280108     0.77200
C798        C  0.32032022  0.75229051  0.34130105     0.77500
C799        C  0.21830254  0.65749087  0.34652614     0.78700
C800        C  0.24044768  0.73282124  0.44110221     0.77700
Zn801      Zn  0.01345051  0.49685098  0.02268443     1.49700
Zn802      Zn  0.99971455  0.53428701  0.96746285     1.49400
Zn803      Zn  0.47889579  0.96880202  0.96845432     1.49100
Zn804      Zn  0.46252568  0.00160447  0.02659492     1.49500
O805        O  0.49533712  0.00317250  0.99862248    -1.83500
O806        O  0.05566782  0.53623093  0.01619278    -0.74200
O807        O  0.99947529  0.52498155  0.91711150    -0.74000
O808        O  0.50341671  0.94866137  0.97046888    -0.73500
O809        O  0.04128019  0.56260208  0.98361504    -0.74200
O810        O  0.01469779  0.95903462  0.02370233    -0.73800
O811        O  0.47674139  0.97754680  0.91946210    -0.74400
O812        O  0.42361886  0.95877386  0.02294888    -0.73800
O813        O  0.98005982  0.55818224  0.97544686    -0.74500
O814        O  0.43938942  0.93701790  0.98568305    -0.73900
O815        O  0.45878688  0.53670945  0.01553473    -0.74400
O816        O  0.47456961  0.00523426  0.07599147    -0.74300
O817        O  0.00736869  0.49846510  0.07286609    -0.74100
C818        C  0.06083051  0.56140619  0.00272729     0.77700
C819        C  0.49140416  0.00204543  0.90281153     0.78200
C820        C  0.99179690  0.93578196  0.00994039     0.77200
C821        C  0.42022606  0.93516284  0.00722421     0.77500
C822        C  0.47687332  0.56109308  0.99941979     0.78700
C823        C  0.49757270  0.00745072  0.09177623     0.77700
Zn824      Zn  0.46391049  0.75127447  0.02447916     1.49700
Zn825      Zn  0.01996302  0.75097865  0.01914408     1.49400
Zn826      Zn  0.47345047  0.72038556  0.96126391     1.49100
Zn827      Zn  0.00504527  0.78906703  0.96503978     1.49500
O828        O  0.98801739  0.75333559  0.99248642    -1.83500
O829        O  0.47739219  0.75200326  0.07208086    -0.74200
O830        O  0.01278120  0.70684657  0.01379392    -0.74000
O831        O  0.42848558  0.69915352  0.96646209    -0.73500
O832        O  0.01318382  0.75450831  0.06881337    -0.74200
O833        O  0.42674703  0.70773608  0.02073409    -0.73800
O834        O  0.48186605  0.68797288  0.97417820    -0.74400
O835        O  0.99953875  0.78327424  0.91416842    -0.73800
O836        O  0.06299601  0.78924511  0.00970297    -0.74500
O837        O  0.48367496  0.73152214  0.91236462    -0.73900
O838        O  0.04856288  0.81408959  0.97491719    -0.74400
O839        O  0.99024216  0.81503787  0.98244618    -0.74300
O840        O  0.46062150  0.79056618  0.01967491    -0.74100
C841        C  0.99158659  0.75400560  0.08546580     0.77700
C842        C  0.99430498  0.68560031  0.99379565     0.78200
C843        C  0.41656090  0.69000981  0.99517661     0.77200
C844        C  0.98974690  0.75904890  0.89670885     0.77500
C845        C  0.06882396  0.81327811  0.99301806     0.78700
C846        C  0.47425508  0.81300438  0.99933881     0.77700
Zn847      Zn  0.22939653  0.99108855  0.02050952     1.49700
Zn848      Zn  0.28204362  0.52818491  0.96808902     1.49400
Zn849      Zn  0.29280734  0.49859706  0.02961531     1.49100
Zn850      Zn  0.24823707  0.95538258  0.96839932     1.49500
O851        O  0.26298063  0.98977357  0.99820584    -1.83500
O852        O  0.23292400  0.53931035  0.01363279    -0.74200
O853        O  0.32647600  0.54581826  0.97143114    -0.74000
O854        O  0.27782162  0.49580339  0.07668442    -0.73500
O855        O  0.27442004  0.56065279  0.98208716    -0.74200
O856        O  0.23313761  0.98672169  0.07065203    -0.73800
O857        O  0.32998142  0.54277454  0.02622851    -0.74400
O858        O  0.26849471  0.93192839  0.97852888    -0.73800
O859        O  0.27112854  0.51891038  0.92023236    -0.74500
O860        O  0.29604748  0.95231714  0.02538452    -0.73900
O861        O  0.25004646  0.96507994  0.91850070    -0.74400
O862        O  0.20575387  0.92601265  0.98011730    -0.74300
O863        O  0.18825884  0.95204056  0.00810527    -0.74100
C864        C  0.25482504  0.56280299  0.99962631     0.77700
C865        C  0.33877050  0.55839030  0.99920320     0.78200
C866        C  0.25304405  0.98564309  0.08948808     0.77200
C867        C  0.28308293  0.93038509  0.00392157     0.77500
C868        C  0.26109213  0.99080718  0.90398923     0.78700
C869        C  0.18437602  0.92710757  0.99511919     0.77700
Zn870      Zn  0.21875304  0.74112756  0.04344448     1.49700
Zn871      Zn  0.28453179  0.74484059  0.04075151     1.49400
Zn872      Zn  0.23261394  0.70621679  0.98394457     1.49100
Zn873      Zn  0.26154475  0.77374285  0.98385945     1.49500
O874        O  0.24958708  0.74035091  0.01417947    -1.83500
O875        O  0.22889867  0.73727218  0.09181196    -0.74200
O876        O  0.28877697  0.70657823  0.03134544    -0.74000
O877        O  0.19033757  0.67839237  0.99683245    -0.73500
O878        O  0.27535345  0.74324476  0.09114827    -0.74200
O879        O  0.17622503  0.70212191  0.03366433    -0.73800
O880        O  0.25194818  0.68203478  0.99291948    -0.74400
O881        O  0.26463198  0.76579396  0.93530100    -0.73800
O882        O  0.32169365  0.78844104  0.03273752    -0.74500
O883        O  0.23578355  0.71571380  0.93382253    -0.73900
O884        O  0.29997563  0.80831587  0.00022228    -0.74400
O885        O  0.23094118  0.78639494  0.98606158    -0.74300
O886        O  0.22627880  0.78577253  0.04056989    -0.74100
C887        C  0.25209158  0.73953921  0.10724807     0.77700
C888        C  0.27248280  0.68339291  0.01241121     0.78200
C889        C  0.17067030  0.67844151  0.01627081     0.77200
C890        C  0.25066804  0.74108305  0.91871191     0.77500
C891        C  0.32206117  0.81134505  0.01833819     0.78700
C892        C  0.23346614  0.80068021  0.01302615     0.77700
Zn893      Zn  0.03157578  0.50329139  0.63352408     1.49700
Zn894      Zn  0.49923998  0.95915253  0.69542157     1.49400
Zn895      Zn  0.99816868  0.52208199  0.68762985     1.49100
Zn896      Zn  0.46140735  0.96582476  0.63320850     1.49500
O897        O  0.49511452  0.98669401  0.66403105    -1.83500
O898        O  0.04757366  0.47501254  0.63363356    -0.74200
O899        O  0.49819327  0.97216841  0.74366950    -0.74000
O900        O  0.04114823  0.56035129  0.68304939    -0.73500
O901        O  0.04205009  0.96292876  0.69635763    -0.74200
O902        O  0.06492010  0.54198116  0.65242859    -0.73800
O903        O  0.99532093  0.51300492  0.73763315    -0.74400
O904        O  0.43259626  0.98072682  0.64032572    -0.73800
O905        O  0.45949619  0.91669145  0.69160332    -0.74500
O906        O  0.45440675  0.52287869  0.67559249    -0.73900
O907        O  0.43706902  0.92302848  0.64609113    -0.74400
O908        O  0.47140436  0.96993115  0.58366980    -0.74300
O909        O  0.02324237  0.50886053  0.58534742    -0.74100
C910        C  0.05776230  0.96986650  0.66932396     0.77700
C911        C  0.49463085  0.99312362  0.75679758     0.78200
C912        C  0.06563694  0.56275742  0.67096141     0.77200
C913        C  0.43134292  0.50378339  0.65789166     0.77500
C914        C  0.43681809  0.90730894  0.67108931     0.78700
C915        C  0.49535121  0.98986811  0.56914732     0.77700
Zn916      Zn  0.50181826  0.72714920  0.68624331     1.49700
Zn917      Zn  0.00051142  0.78862742  0.68223042     1.49400
Zn918      Zn  0.03527771  0.77032324  0.62790793     1.49100
Zn919      Zn  0.46974835  0.74336366  0.62702411     1.49500
O920        O  0.50341902  0.75957426  0.65828466    -1.83500
O921        O  0.50012691  0.73691509  0.73509498    -0.74200
O922        O  0.03857898  0.82966751  0.67020253    -0.74000
O923        O  0.06428644  0.75972285  0.64660338    -0.73500
O924        O  0.00195671  0.78311417  0.73309859    -0.74200
O925        O  0.04149197  0.72649661  0.68806818    -0.73800
O926        O  0.05921037  0.81451895  0.63097618    -0.74400
O927        O  0.47854097  0.75864839  0.57920533    -0.73800
O928        O  0.46173946  0.78919179  0.68229951    -0.74500
O929        O  0.02599925  0.75992487  0.57882762    -0.73900
O930        O  0.43866198  0.75023719  0.64648687    -0.74400
O931        O  0.44947677  0.69861090  0.62500547    -0.74300
O932        O  0.45937538  0.68921889  0.67672313    -0.74100
C933        C  0.50321077  0.76001229  0.75120149     0.77700
C934        C  0.06010067  0.83514839  0.64970744     0.78200
C935        C  0.06528349  0.74432816  0.67124102     0.77200
C936        C  0.50227818  0.76395320  0.56327241     0.77500
C937        C  0.43755962  0.76818617  0.66787254     0.78700
C938        C  0.44119376  0.68247820  0.65138717     0.77700
Zn939      Zn  0.28675334  0.53070003  0.69475132     1.49700
Zn940      Zn  0.25189775  0.54361460  0.63384024     1.49400
Zn941      Zn  0.24865355  0.97393066  0.63949117     1.49100
Zn942      Zn  0.21954678  0.99590582  0.69689880     1.49500
O943        O  0.25193186  0.00891021  0.66463651    -1.83500
O944        O  0.31230481  0.57376743  0.68644252    -0.74200
O945        O  0.25314503  0.53204983  0.58419515    -0.74000
O946        O  0.28842911  0.97152661  0.64904277    -0.73500
O947        O  0.29238081  0.58537191  0.64249456    -0.74200
O948        O  0.31323730  0.51459600  0.68402826    -0.73800
O949        O  0.24848652  0.98131837  0.58891997    -0.74400
O950        O  0.18587835  0.95731646  0.68182228    -0.73800
O951        O  0.20803035  0.53765329  0.63989009    -0.74500
O952        O  0.20520029  0.93653722  0.64780131    -0.73900
O953        O  0.20300445  0.02375305  0.69670733    -0.74400
O954        O  0.22885054  0.98974975  0.74444611    -0.74300
O955        O  0.27858178  0.52336052  0.74392523    -0.74100
C956        C  0.31407259  0.59229452  0.66398056     0.77700
C957        C  0.24927828  0.00254753  0.57087705     0.78200
C958        C  0.31218578  0.98986114  0.66639979     0.77200
C959        C  0.18262341  0.93550515  0.66343185     0.77500
C960        C  0.19121337  0.52959710  0.66612774     0.78700
C961        C  0.25420670  0.00309804  0.75990873     0.77700
Zn962      Zn  0.27864898  0.76953360  0.64899776     1.49700
Zn963      Zn  0.21112674  0.73292983  0.65241122     1.49400
Zn964      Zn  0.24918014  0.71652105  0.70426580     1.49100
Zn965      Zn  0.24917657  0.78077988  0.71118678     1.49500
O966        O  0.24632555  0.74909001  0.68048254    -1.83500
O967        O  0.26800455  0.75607352  0.60097321    -0.74200
O968        O  0.18370935  0.69091036  0.66526330    -0.74000
O969        O  0.29170021  0.72132231  0.69456092    -0.73500
O970        O  0.21794654  0.73386778  0.60266049    -0.74200
O971        O  0.31214806  0.76367161  0.66371901    -0.73800
O972        O  0.20934679  0.67442246  0.69604618    -0.74400
O973        O  0.24855113  0.76701803  0.75877354    -0.73800
O974        O  0.18676267  0.75109784  0.66373587    -0.74500
O975        O  0.24976596  0.72398537  0.75462911    -0.73900
O976        O  0.20983183  0.78391003  0.70613970    -0.74400
O977        O  0.29296501  0.81787322  0.70643694    -0.74300
O978        O  0.29522959  0.81385203  0.65162836    -0.74100
C979        C  0.24226073  0.74293036  0.58613298     0.77700
C980        C  0.18459132  0.67010825  0.68199887     0.78200
C981        C  0.31470456  0.74386196  0.68068072     0.77200
C982        C  0.24930835  0.74466315  0.77246398     0.77500
C983        C  0.18672066  0.76828139  0.68681167     0.78700
C984        C  0.30834650  0.82591890  0.67932233     0.77700
C985        C  0.40845427  0.65864012  0.65399136    -0.04900
C986        C  0.39545728  0.64980695  0.68597177    -0.32300
C987        C  0.36399718  0.63108723  0.68970167     0.36900
C988        C  0.34446983  0.62010265  0.66112884    -0.05200
C989        C  0.35720364  0.62982056  0.62919670    -0.32200
C990        C  0.38876000  0.64875347  0.62544176     0.41700
H991        H  0.40966261  0.65788563  0.70840322     0.17200
O992        O  0.35268304  0.62251383  0.72155949    -0.59700
H993        H  0.34294358  0.62114558  0.60685846     0.17200
O994        O  0.40005188  0.65712207  0.59356982    -0.59800
H995        H  0.40509556  0.64146605  0.58625776     0.44200
H996        H  0.34487340  0.63628302  0.72774194     0.44200
C997        C  0.08926588  0.86441292  0.65044136    -0.04900
C998        C  0.09926634  0.88041565  0.68093067    -0.32300
C999        C  0.12980305  0.90261692  0.68578439     0.36900
C1000       C  0.15114522  0.90962429  0.65971602    -0.05200
C1001       C  0.14092944  0.89465092  0.62869269    -0.32200
C1002       C  0.11033040  0.87229504  0.62386949     0.36900
H1003       H  0.08382648  0.87442516  0.70190387     0.17200
O1004       O  0.13866230  0.91694075  0.71651456    -0.59700
H1005       H  0.15657669  0.90057690  0.60793557     0.17200
O1006       O  0.10118338  0.85821196  0.59302142    -0.59800
H1007       H  0.10947428  0.84417969  0.59177038     0.44200
H1008       H  0.14384798  0.90386131  0.73039314     0.44200
C1009       C  0.40665526  0.76221694  0.67635966    -0.04900
C1010       C  0.38215866  0.73199434  0.67341873    -0.32300
C1011       C  0.35198412  0.72512194  0.67706781     0.36900
C1012       C  0.34578275  0.74858882  0.68375872    -0.05200
C1013       C  0.37024483  0.77850480  0.68871879    -0.32200
C1014       C  0.40050904  0.78536546  0.68537910     0.36900
H1015       H  0.38634038  0.71357745  0.66724809     0.17200
O1016       O  0.32877951  0.69578710  0.67212866    -0.59700
H1017       H  0.36578200  0.79686562  0.69411282     0.17200
O1018       O  0.42363409  0.81481431  0.68968144    -0.59800
H1019       H  0.42735534  0.82402521  0.66695562     0.44200
H1020       H  0.32523270  0.69361951  0.64742455     0.44200
C1021       C  0.09603297  0.75084858  0.68157805    -0.04900
C1022       C  0.12037456  0.78107662  0.67828124    -0.32300
C1023       C  0.15058379  0.78839867  0.68373566     0.36900
C1024       C  0.15681885  0.76536957  0.69261318    -0.05200
C1025       C  0.13241668  0.73570280  0.69853577    -0.32200
C1026       C  0.10217223  0.72831490  0.69304711     0.36900
H1027       H  0.11602578  0.79899418  0.67017170     0.17200
O1028       O  0.17375634  0.81732396  0.67735181    -0.59700
H1029       H  0.13703237  0.71761986  0.70504653     0.17200
O1030       O  0.07918592  0.69877287  0.69670084    -0.59800
H1031       H  0.07773820  0.68879158  0.67475969     0.44200
H1032       H  0.17789700  0.82828845  0.69916330     0.44200
C1033       C  0.34227106  0.84538311  0.67972782    -0.04900
C1034       C  0.35846623  0.84402005  0.65175705    -0.32300
C1035       C  0.39026144  0.86096650  0.65069934     0.36900
C1036       C  0.40696233  0.88005827  0.67779098    -0.05200
C1037       C  0.39115067  0.87999481  0.70676840    -0.32200
C1038       C  0.35910348  0.86295966  0.70785862     0.36900
H1039       H  0.34645612  0.82999524  0.63011123     0.17200
O1040       O  0.40476782  0.86076903  0.62179544    -0.59700
H1041       H  0.40344848  0.89529866  0.72747290     0.17200
O1042       O  0.34456708  0.86477256  0.73593365    -0.59800
H1043       H  0.34121831  0.88219222  0.73175628     0.44200
H1044       H  0.40486145  0.84126213  0.62220326     0.44200
C1045       C  0.09602783  0.58975488  0.67837242    -0.04900
C1046       C  0.12242108  0.58704406  0.67644042    -0.32300
C1047       C  0.15170594  0.61255964  0.68022056     0.36900
C1048       C  0.15503290  0.64146107  0.68530437    -0.05200
C1049       C  0.12868006  0.64383497  0.68917536    -0.32200
C1050       C  0.09949238  0.61840407  0.68596155     0.36900
H1051       H  0.12039531  0.56510840  0.67125392     0.17200
O1052       O  0.17674596  0.60929685  0.67635327    -0.59700
H1053       H  0.13073939  0.66589804  0.69350089     0.17200
O1054       O  0.07464423  0.62216072  0.68884822    -0.59800
H1055       H  0.07091627  0.62738869  0.66588469     0.44200
H1056       H  0.18232927  0.60627091  0.69945910     0.44200
C1057       C  0.40150649  0.50264663  0.65901170    -0.04900
C1058       C  0.39259329  0.51070059  0.68870279    -0.32300
C1059       C  0.36293191  0.50548871  0.69223282     0.36900
C1060       C  0.34127360  0.98935283  0.66525863    -0.05200
C1061       C  0.35067776  0.98228309  0.63519044    -0.32200
C1062       C  0.38050252  0.98760741  0.63184392     0.36900
H1063       H  0.40836681  0.52017226  0.70976181     0.17200
O1064       O  0.35522985  0.51332181  0.72210738    -0.59700
H1065       H  0.33527026  0.97373518  0.61373998     0.17200
O1066       O  0.38872657  0.98062515  0.60179335    -0.59800
H1067       H  0.39978511  0.00025600  0.58965393     0.44200
H1068       H  0.34692474  0.49470087  0.73612380     0.44200
C1069       C  0.09145860  0.98143378  0.66948094    -0.04900
C1070       C  0.10813679  0.99455488  0.63980571    -0.32300
C1071       C  0.14014624  0.00979300  0.63943778     0.36900
C1072       C  0.15760442  0.51797761  0.66409388    -0.05200
C1073       C  0.14078140  0.51105049  0.69413494    -0.32200
C1074       C  0.10877557  0.49502595  0.69392500     0.36900
H1075       H  0.09636759  0.99360524  0.61654151     0.17200
O1076       O  0.15482913  0.02198514  0.60977868    -0.59700
H1077       H  0.15250318  0.51772946  0.71824490     0.17200
O1078       O  0.09385753  0.48970323  0.72394871    -0.59800
H1079       H  0.09243694  0.50822066  0.72831619     0.44200
H1080       H  0.15478588  0.00485518  0.59765128     0.44200
C1081       C  0.25112158  0.74216720  0.88137398    -0.04900
C1082       C  0.24752933  0.71711174  0.86255233    -0.32300
C1083       C  0.24707195  0.71750055  0.82720889     0.36900
C1084       C  0.24994977  0.74320393  0.80992597    -0.05200
C1085       C  0.25348070  0.76819214  0.82894503    -0.32200
C1086       C  0.25427897  0.76793079  0.86414516     0.36900
H1087       H  0.24517141  0.69713792  0.87528066     0.17200
O1088       O  0.24383862  0.69260014  0.80997594    -0.59700
H1089       H  0.25563802  0.78822149  0.81655765     0.17200
O1090       O  0.25668320  0.79249062  0.88143318    -0.59800
H1091       H  0.27872812  0.80761696  0.88205446     0.44200
H1092       H  0.22158498  0.67907929  0.80698746     0.44200
C1093       C  0.27977706  0.89984484  0.00962429    -0.04900
C1094       C  0.27779713  0.88260240  0.98111655    -0.32300
C1095       C  0.26274481  0.85076216  0.98198314     0.36900
C1096       C  0.24911536  0.83484345  0.01207258    -0.05200
C1097       C  0.25321345  0.85217752  0.04139552    -0.32200
C1098       C  0.26815220  0.88432619  0.04027742     0.36900
H1099       H  0.28609788  0.89385781  0.95715240     0.17200
O1100       O  0.26057731  0.83553135  0.95260508    -0.59700
H1101       H  0.24399500  0.84080986  0.06506689     0.17200
O1102       O  0.26930898  0.90016727  0.06876391    -0.59800
H1103       H  0.24981422  0.90026446  0.06888570     0.44200
H1104       H  0.27990091  0.83517160  0.95122037     0.44200
C1105       C  0.25961126  0.59405953  0.00426459    -0.04900
C1106       C  0.28008598  0.61748954  0.98284121    -0.32300
C1107       C  0.28694885  0.64766429  0.98723868     0.36900
C1108       C  0.27422714  0.65535180  0.01402124    -0.05200
C1109       C  0.25433202  0.63229325  0.03592242    -0.32200
C1110       C  0.24684088  0.60184902  0.03114689     0.36900
H1111       H  0.29046979  0.61239749  0.96199498     0.17200
O1112       O  0.30530420  0.66936543  0.96452003    -0.59700
H1113       H  0.24316321  0.63765493  0.05570289     0.17200
O1114       O  0.22726632  0.58008663  0.05304416    -0.59800
H1115       H  0.20661527  0.57372125  0.04410086     0.44200
H1116       H  0.29172498  0.66738907  0.94537838     0.44200
C1117       C  0.25579578  0.99862319  0.79658193    -0.04900
C1118       C  0.27924468  0.52553189  0.81506831    -0.32300
C1119       C  0.28111480  0.52259873  0.84976229     0.36900
C1120       C  0.25977517  0.99268031  0.86693649    -0.05200
C1121       C  0.23498070  0.97019123  0.84847747    -0.32200
C1122       C  0.23281780  0.97303066  0.81354677     0.36900
H1123       H  0.29651907  0.54602539  0.80299616     0.17200
O1124       O  0.30495624  0.54566659  0.86722559    -0.59700
H1125       H  0.21693523  0.95072154  0.86122809     0.17200
O1126       O  0.20815551  0.95071727  0.79635970    -0.59800
H1127       H  0.21407111  0.93547830  0.79000505     0.44200
H1128       H  0.32144189  0.54057009  0.86668328     0.44200
C1129       C  0.35945820  0.59218690  0.99953821    -0.04900
C1130       C  0.35752835  0.60898940  0.97225090    -0.32300
C1131       C  0.37414441  0.64083360  0.97183551     0.36900
C1132       C  0.39358829  0.65711995  0.99890612    -0.05200
C1133       C  0.39526094  0.64057052  0.02665048    -0.32200
C1134       C  0.37845771  0.60841399  0.02708203     0.36900
H1135       H  0.34260784  0.59743517  0.95099762     0.17200
O1136       O  0.37166045  0.65586011  0.94432624    -0.59700
H1137       H  0.41076502  0.65251560  0.04735632     0.17200
O1138       O  0.38130839  0.59320297  0.05417058    -0.59800
H1139       H  0.39802131  0.58929479  0.04825644     0.44200
H1140       H  0.35391259  0.65846082  0.94894074     0.44200
C1141       C  0.09865965  0.84225722  0.99550062    -0.04900
C1142       C  0.12594100  0.84237183  0.00178244    -0.32300
C1143       C  0.15390353  0.86993552  0.00221756     0.36900
C1144       C  0.15487483  0.89815228  0.99734673    -0.05200
C1145       C  0.12758568  0.89813378  0.99272399    -0.32200
C1146       C  0.09981850  0.87070127  0.99129962     0.36900
H1147       H  0.12571460  0.82108523  0.00553075     0.17200
O1148       O  0.18017023  0.86914102  0.00832338    -0.59700
H1149       H  0.12780209  0.91943452  0.98908293     0.17200
O1150       O  0.07372527  0.87210865  0.98657286    -0.59800
H1151       H  0.07273249  0.87539210  0.96206158     0.44200
H1152       H  0.18532496  0.86338102  0.98652495     0.44200
C1153       C  0.50230324  0.75928232  0.78879082    -0.04900
C1154       C  0.51046040  0.78607474  0.80711798    -0.32300
C1155       C  0.50926536  0.78593135  0.84242841     0.36900
C1156       C  0.99133023  0.76026624  0.85912886    -0.05200
C1157       C  0.97921224  0.73283955  0.84083771    -0.32200
C1158       C  0.98121165  0.73262318  0.80573615     0.36900
H1159       H  0.51775187  0.80735964  0.79406266     0.17200
O1160       O  0.51721720  0.81268403  0.85894116    -0.59700
H1161       H  0.96815430  0.71116716  0.85375869     0.17200
O1162       O  0.96826357  0.70507420  0.78932162    -0.59800
H1163       H  0.98338024  0.69817467  0.79131026     0.44200
H1164       H  0.49816701  0.81356395  0.86025486     0.44200
C1165       C  0.39510798  0.90402410  0.01489859    -0.04900
C1166       C  0.40129667  0.87978464  0.01382175    -0.32300
C1167       C  0.37816228  0.84944584  0.01755116     0.36900
C1168       C  0.34806020  0.84276411  0.02188095    -0.05200
C1169       C  0.34205547  0.86703494  0.02477904    -0.32200
C1170       C  0.36530980  0.89746927  0.02154282     0.36900
H1171       H  0.42421030  0.88433280  0.00923245     0.17200
O1172       O  0.38482913  0.82650140  0.01397915    -0.59700
H1173       H  0.31894437  0.86228657  0.02830906     0.17200
O1174       O  0.35837406  0.92034737  0.02323087    -0.59800
H1175       H  0.35082252  0.92132217  0.00039232     0.44200
H1176       H  0.39283479  0.82484816  0.03626931     0.44200
C1177       C  0.08892308  0.59093922  0.01024507    -0.04900
C1178       C  0.08725622  0.61799573  0.00959187    -0.32300
C1179       C  0.11328803  0.64677872  0.01391351     0.36900
C1180       C  0.14173251  0.64903699  0.01874309    -0.05200
C1181       C  0.14322040  0.62199614  0.02115659    -0.32200
C1182       C  0.11714683  0.59317828  0.01725785     0.36900
H1183       H  0.06563922  0.61690721  0.00505452     0.17200
O1184       O  0.11085150  0.67248440  0.01173154    -0.59700
H1185       H  0.16501672  0.62329320  0.02501577     0.17200
O1186       O  0.11979288  0.56757526  0.01902179    -0.59800
H1187       H  0.12448737  0.56419701  0.99576306     0.44200
H1188       H  0.11203738  0.67714871  0.98734592     0.44200
C1189       C  0.47459506  0.84207925  0.00394867    -0.04900
C1190       C  0.49191570  0.86125483  0.03076956    -0.32300
C1191       C  0.50350252  0.89296327  0.02942969     0.36900
C1192       C  0.98603125  0.90422964  0.01428883    -0.05200
C1193       C  0.95592265  0.87955088  0.01034191    -0.32200
C1194       C  0.94973078  0.84930221  0.00931886     0.36900
H1195       H  0.49851938  0.85195974  0.05166407     0.17200
O1196       O  0.52116703  0.91088605  0.05559984    -0.59700
H1197       H  0.93715140  0.88376631  0.00681247     0.17200
O1198       O  0.92067655  0.82616059  0.00289220    -0.59800
H1199       H  0.91106707  0.81994473  0.02529013     0.44200
H1200       H  0.54232122  0.91657300  0.04969930     0.44200
C1201       C  0.47806815  0.59048695  0.00488184    -0.04900
C1202       C  0.97233234  0.60705995  0.02838543    -0.32300
C1203       C  0.98363547  0.63875753  0.02756586     0.36900
C1204       C  0.98752998  0.65363681  0.99640771    -0.05200
C1205       C  0.46533914  0.62812631  0.98535395    -0.32200
C1206       C  0.45801937  0.59760683  0.98819910     0.36900
H1207       H  0.97136874  0.59626247  0.05225758     0.17200
O1208       O  0.99041887  0.65478177  0.05723290    -0.59700
H1209       H  0.44936018  0.63278518  0.97208565     0.17200
O1210       O  0.43200354  0.57512704  0.97315512    -0.59800
H1211       H  0.43789725  0.57356878  0.94980541     0.44200
H1212       H  0.97143007  0.65459626  0.06347948     0.44200
C1213       C  0.49100001  0.00021812  0.86528145    -0.04900
C1214       C  0.48245115  0.97204656  0.84979437    -0.32300
C1215       C  0.48386804  0.96947839  0.81480483     0.36900
C1216       C  0.49323019  0.99520948  0.79411558    -0.05200
C1217       C  0.00456404  0.52207677  0.80871901    -0.32200
C1218       C  0.00267144  0.52458319  0.84374060     0.36900
H1219       H  0.47525150  0.95183231  0.86493189     0.17200
O1220       O  0.47523347  0.94144289  0.80109738    -0.59700
H1221       H  0.01525664  0.54270908  0.79386998     0.17200
O1222       O  0.01445269  0.55301906  0.85780811    -0.59800
H1223       H  0.99836084  0.55851252  0.85485457     0.44200
H1224       H  0.49329151  0.93886921  0.80357183     0.44200
C1225       C  0.24026156  0.73256962  0.47833917    -0.04900
C1226       C  0.21454711  0.72919481  0.49518438    -0.32300
C1227       C  0.21452666  0.73174801  0.53021983     0.36900
C1228       C  0.24077542  0.73828655  0.54918770    -0.05200
C1229       C  0.26628816  0.74105754  0.53237362    -0.32200
C1230       C  0.26610127  0.73798474  0.49735767     0.36900
H1231       H  0.19440749  0.72499099  0.48109433     0.17200
O1232       O  0.18922831  0.72932493  0.54535701    -0.59700
H1233       H  0.28667678  0.74592074  0.54636111     0.17200
O1234       O  0.29195034  0.74210694  0.48193116    -0.59800
H1235       H  0.29054764  0.72188053  0.48257099     0.44200
H1236       H  0.17536256  0.70716210  0.54844714     0.44200
C1237       C  0.24778673  0.73756420  0.21612998    -0.04900
C1238       C  0.27614271  0.75324394  0.20006110    -0.32300
C1239       C  0.27817034  0.75338577  0.16473431     0.36900
C1240       C  0.25152172  0.73800640  0.14472054    -0.05200
C1241       C  0.22333118  0.72205429  0.16088938    -0.32200
C1242       C  0.22131261  0.72160927  0.19603110     0.36900
H1243       H  0.29684755  0.76550606  0.21491211     0.17200
O1244       O  0.30622887  0.76918256  0.15012097    -0.59700
H1245       H  0.20253392  0.70993488  0.14616022     0.17200
O1246       O  0.19312237  0.70595057  0.21036868    -0.59800
H1247       H  0.18594172  0.72086458  0.21200006     0.44200
H1248       H  0.31023372  0.79036455  0.14788700     0.44200
C1249       C  0.24842314  0.99945346  0.53328858    -0.04900
C1250       C  0.23168863  0.97044857  0.51834225    -0.32300
C1251       C  0.22993421  0.96662146  0.48314194     0.36900
C1252       C  0.24547554  0.99202995  0.46167944    -0.05200
C1253       C  0.26022588  0.52612661  0.47564554    -0.32200
C1254       C  0.26224795  0.53048076  0.51086792     0.36900
H1255       H  0.21939293  0.95054370  0.53405735     0.17200
O1256       O  0.21275369  0.93781262  0.47008394    -0.59700
H1257       H  0.26941967  0.54594581  0.45951060     0.17200
O1258       O  0.27600826  0.55958906  0.52350723    -0.59800
H1259       H  0.29797487  0.56619435  0.52492227     0.44200
H1260       H  0.22675078  0.92950293  0.46895776     0.44200
C1261       C  0.21579649  0.87167422  0.34356920    -0.04900
C1262       C  0.22171704  0.85918353  0.31494656    -0.32300
C1263       C  0.23543191  0.84122847  0.31760080     0.36900
C1264       C  0.24333548  0.83480562  0.34945683    -0.05200
C1265       C  0.23491432  0.84503386  0.37833678    -0.32200
C1266       C  0.22149454  0.86349172  0.37557111     0.36900
H1267       H  0.21763852  0.86521584  0.29001372     0.17200
O1268       O  0.24130328  0.83043075  0.28864782    -0.59700
H1269       H  0.23939580  0.83932596  0.40322930     0.17200
O1270       O  0.21577909  0.87484568  0.40420600    -0.59800
H1271       H  0.23524205  0.89349951  0.40993750     0.44200
H1272       H  0.22254307  0.81078606  0.28392416     0.44200
C1273       C  0.23381390  0.58277973  0.33308968    -0.04900
C1274       C  0.23672659  0.59546336  0.36511518    -0.32300
C1275       C  0.22822119  0.61745481  0.37075531     0.36900
C1276       C  0.21702468  0.62767144  0.34390883    -0.05200
C1277       C  0.21268401  0.61382173  0.31222320    -0.32200
C1278       C  0.22066851  0.59136724  0.30678361     0.36900
H1279       H  0.24513252  0.58792832  0.38605795     0.17200
O1280       O  0.23114870  0.62908386  0.40266780    -0.59700
H1281       H  0.20477019  0.62162338  0.29108189     0.17200
O1282       O  0.21689376  0.57897784  0.27517561    -0.59800
H1283       H  0.19499637  0.56335067  0.27346245     0.44200
H1284       H  0.25336212  0.64232879  0.40659965     0.44200
C1285       C  0.24804990  0.98171059  0.12640216    -0.04900
C1286       C  0.23163227  0.50177251  0.14160856    -0.32300
C1287       C  0.22780987  0.50035009  0.17656048     0.36900
C1288       C  0.23823376  0.97553591  0.19682162    -0.05200
C1289       C  0.26118052  0.97160267  0.18231721    -0.32200
C1290       C  0.26639991  0.97493748  0.14762177     0.36900
H1291       H  0.21980321  0.51039276  0.12632351     0.17200
O1292       O  0.20904770  0.50969031  0.19011935    -0.59700
H1293       H  0.27574607  0.96665465  0.19802472     0.17200
O1294       O  0.28926391  0.97106936  0.13481150    -0.59800
H1295       H  0.30807333  0.99108588  0.13776791     0.44200
H1296       H  0.22215123  0.53194176  0.19375908     0.44200
C1297       C  0.50423898  0.76971441  0.45503689    -0.04900
C1298       C  0.02707390  0.75980742  0.47161993    -0.32300
C1299       C  0.02667172  0.75740739  0.50666383     0.36900
C1300       C  0.50327432  0.76664755  0.52604981    -0.05200
C1301       C  0.47886613  0.76587241  0.50796028    -0.32200
C1302       C  0.47925887  0.76744650  0.47266488     0.36900
H1303       H  0.04509114  0.75904890  0.45799871     0.17200
O1304       O  0.04901737  0.75406863  0.52239001    -0.59700
H1305       H  0.45929269  0.76373101  0.52111502     0.17200
O1306       O  0.45485294  0.76593351  0.45571960    -0.59800
H1307       H  0.44158412  0.74410715  0.44990804     0.44200
H1308       H  0.04101390  0.73180401  0.52318745     0.44200
C1309       C  0.39867212  0.74240277  0.32060437    -0.04900
C1310       C  0.39903405  0.76974217  0.31266896    -0.32300
C1311       C  0.37392223  0.77348687  0.31885370     0.36900
C1312       C  0.34775935  0.74977908  0.33371577    -0.05200
C1313       C  0.34699589  0.72189778  0.34023473    -0.32200
C1314       C  0.37212407  0.71816972  0.33385147     0.36900
H1315       H  0.41958931  0.78893430  0.30298347     0.17200
O1316       O  0.37596070  0.80097220  0.31204263    -0.59700
H1317       H  0.32691931  0.70284519  0.35086827     0.17200
O1318       O  0.37101157  0.69138853  0.34228793    -0.59800
H1319       H  0.37746757  0.69381295  0.36627069     0.44200
H1320       H  0.37029467  0.79990022  0.28790176     0.44200
C1321       C  0.10839870  0.77096159  0.32613026    -0.04900
C1322       C  0.11468802  0.76304203  0.35796781    -0.32300
C1323       C  0.13195286  0.74869641  0.36162565     0.36900
C1324       C  0.14387012  0.74176580  0.33321924    -0.05200
C1325       C  0.13732540  0.74903525  0.30113047    -0.32200
C1326       C  0.11960518  0.76333006  0.29742866     0.36900
H1327       H  0.10593619  0.76770039  0.38059871     0.17200
O1328       O  0.13709081  0.74143553  0.39341900    -0.59700
H1329       H  0.14698545  0.74479667  0.27898749     0.17200
O1330       O  0.11389099  0.77013100  0.26573682    -0.59800
H1331       H  0.09546033  0.75141430  0.25775531     0.44200
H1332       H  0.15248733  0.76101079  0.40380090     0.44200
C1333       C  0.99895669  0.75936511  0.19396808    -0.04900
C1334       C  0.47631650  0.73654545  0.17758427    -0.32300
C1335       C  0.47470804  0.73523426  0.14236012     0.36900
C1336       C  0.99363950  0.75588180  0.12282090    -0.05200
C1337       C  0.02222078  0.76799317  0.13870325    -0.32200
C1338       C  0.02502934  0.76991085  0.17381289     0.36900
H1339       H  0.45548438  0.72434819  0.19174246     0.17200
O1340       O  0.44687882  0.71820447  0.12691351    -0.59700
H1341       H  0.04262104  0.77619084  0.12385105     0.17200
O1342       O  0.05343463  0.78177449  0.18815235    -0.59800
H1343       H  0.05651171  0.76410873  0.19149541     0.44200
H1344       H  0.44451380  0.69771423  0.12376197     0.44200
C1345       C  0.49857603  0.00056359  0.46170910    -0.04900
C1346       C  0.48220724  0.97138765  0.47578125    -0.32300
C1347       C  0.48035611  0.96757493  0.51078815     0.36900
C1348       C  0.49559969  0.99313848  0.53220140    -0.05200
C1349       C  0.02675258  0.50723344  0.51424187    -0.32200
C1350       C  0.02851431  0.51114714  0.47938200     0.36900
H1351       H  0.47076716  0.95152238  0.45957975     0.17200
O1352       O  0.46419749  0.93875643  0.52376175    -0.59700
H1353       H  0.04644811  0.50965615  0.52788378     0.17200
O1354       O  0.05523361  0.51854647  0.46353266    -0.59800
H1355       H  0.05469221  0.49890588  0.46002821     0.44200
H1356       H  0.47904524  0.93152280  0.52586774     0.44200
C1357       C  0.50832641  0.91546475  0.30727584    -0.04900
C1358       C  0.04090875  0.92278594  0.33989195    -0.32300
C1359       C  0.04843318  0.89999582  0.33518499     0.36900
C1360       C  0.03138431  0.87603725  0.31269913    -0.05200
C1361       C  0.49359864  0.86347527  0.29284644    -0.32200
C1362       C  0.48619380  0.88656513  0.29567495     0.36900
H1363       H  0.05448321  0.94073999  0.35780197     0.17200
O1364       O  0.07154507  0.90050461  0.35393188    -0.59700
H1365       H  0.47567189  0.84062790  0.28648307     0.17200
O1366       O  0.45689978  0.88000666  0.28940734    -0.59800
H1367       H  0.44589678  0.87143210  0.31073473     0.44200
H1368       H  0.06237135  0.89147300  0.37593138     0.44200
C1369       C  0.51409594  0.66801119  0.32504333    -0.04900
C1370       C  0.04111379  0.67311586  0.32308320    -0.32300
C1371       C  0.04710209  0.64890955  0.32279737     0.36900
C1372       C  0.02383222  0.61960747  0.31418293    -0.05200
C1373       C  0.51604314  0.62697622  0.29539021    -0.32200
C1374       C  0.50664566  0.64874738  0.29672815     0.36900
H1375       H  0.05936842  0.69543275  0.33057628     0.17200
O1376       O  0.07517243  0.65382750  0.33271863    -0.59700
H1377       H  0.50824964  0.61085039  0.27464585     0.17200
O1378       O  0.48982309  0.65056911  0.27054661    -0.59800
H1379       H  0.50495856  0.66576765  0.25492992     0.44200
H1380       H  0.07416935  0.65176289  0.35758675     0.44200
C1381       C  0.34554898  0.50444618  0.32792758    -0.04900
C1382       C  0.36375936  0.51366356  0.35708043    -0.32300
C1383       C  0.38942698  0.51003752  0.35986108     0.36900
C1384       C  0.39899892  0.99587485  0.33337047    -0.05200
C1385       C  0.37712837  0.97882963  0.30870421    -0.32200
C1386       C  0.35056881  0.98064821  0.30504808     0.36900
H1387       H  0.35759465  0.52286158  0.37825790     0.17200
O1388       O  0.40603924  0.51862032  0.38931289    -0.59700
H1389       H  0.38075979  0.96429590  0.29165122     0.17200
O1390       O  0.33046634  0.96399491  0.27974131    -0.59800
H1391       H  0.31911781  0.94281584  0.28828535     0.44200
H1392       H  0.41848033  0.54115625  0.38835421     0.44200
C1393       C  0.10595429  0.51483431  0.33140256    -0.04900
C1394       C  0.10830593  0.00161448  0.30779851    -0.32300
C1395       C  0.12194544  0.98334961  0.30662363     0.36900
C1396       C  0.13766042  0.98090829  0.33501912    -0.05200
C1397       C  0.13658756  0.49654155  0.36077924    -0.32200
C1398       C  0.12166354  0.51372304  0.36056008     0.36900
H1399       H  0.09588709  0.00238934  0.28582769     0.17200
O1400       O  0.11988448  0.96808809  0.27732975    -0.59700
H1401       H  0.14933113  0.49710516  0.38307876     0.17200
O1402       O  0.12272880  0.52946555  0.38909266    -0.59800
H1403       H  0.14053843  0.55014621  0.38614981     0.44200
H1404       H  0.10104801  0.94804295  0.27947371     0.44200
C1405       C  0.50116982  0.01230281  0.20060223    -0.04900
C1406       C  0.02289483  0.52167090  0.17887960    -0.32300
C1407       C  0.02051127  0.51993261  0.14361049     0.36900
C1408       C  0.49913328  0.01034065  0.12907855    -0.05200
C1409       C  0.47220294  0.99643136  0.14776813    -0.32200
C1410       C  0.47301236  0.99701768  0.18309733     0.36900
H1411       H  0.04521883  0.53505879  0.19034502     0.17200
O1412       O  0.04628051  0.53568778  0.12478022    -0.59700
H1413       H  0.45035626  0.98430190  0.13495982     0.17200
O1414       O  0.44604731  0.98293662  0.20014876    -0.59800
H1415       H  0.44002304  0.96106774  0.20065337     0.44200
H1416       H  0.05478134  0.52189002  0.12270681     0.44200
Zn1417     Zn  0.99706920  0.03744389  0.36788440     1.49700
Zn1418     Zn  0.97452924  0.47900131  0.30477526     1.49400
Zn1419     Zn  0.53991457  0.04063165  0.30239263     1.49100
Zn1420     Zn  0.52640083  0.50078819  0.36069303     1.49500
O1421       O  0.50695545  0.01200892  0.33088659    -1.83500
O1422       O  0.94878718  0.51572181  0.35023482    -0.74200
O1423       O  0.97904236  0.48828193  0.25480017    -0.74000
O1424       O  0.54382765  0.08315377  0.30850390    -0.73500
O1425       O  0.93192459  0.47509186  0.31721571    -0.74200
O1426       O  0.51095512  0.07427596  0.34994090    -0.73800
O1427       O  0.52789314  0.03057148  0.25307080    -0.74400
O1428       O  0.56884604  0.01944011  0.36459193    -0.73800
O1429       O  0.98395369  0.44284748  0.30795685    -0.74500
O1430       O  0.57638537  0.03323860  0.31111392    -0.73900
O1431       O  0.02325699  0.46405122  0.34347591    -0.74400
O1432       O  0.51324194  0.49619313  0.40791105    -0.74300
O1433       O  0.00146173  0.03228158  0.41799400    -0.74100
C1434       C  0.92723278  0.49403542  0.33417981     0.77700
C1435       C  0.00837803  0.01638150  0.24479867     0.78200
C1436       C  0.52893894  0.09145443  0.32748300     0.77200
C1437       C  0.58389261  0.02408109  0.33773707     0.77500
C1438       C  0.00666725  0.44305789  0.32295713     0.78700
C1439       C  0.50286019  0.51047828  0.42413226     0.77700
Zn1440     Zn  0.52934004  0.25387418  0.35492011     1.49700
Zn1441     Zn  0.53737506  0.29293092  0.29280560     1.49400
Zn1442     Zn  0.98187648  0.23633661  0.29626566     1.49100
Zn1443     Zn  0.00067055  0.29132452  0.34792713     1.49500
O1444       O  0.01545468  0.27116659  0.31972988    -1.83500
O1445       O  0.57368347  0.28189711  0.35223703    -0.74200
O1446       O  0.52359495  0.27930290  0.24567668    -0.74000
O1447       O  0.98739791  0.19869073  0.30447476    -0.73500
O1448       O  0.57657069  0.29022426  0.29757121    -0.74200
O1449       O  0.02936022  0.21961742  0.33663609    -0.73800
O1450       O  0.98667002  0.24385683  0.24554999    -0.74400
O1451       O  0.95807386  0.27773558  0.33591334    -0.73800
O1452       O  0.53937306  0.33462768  0.29715147    -0.74500
O1453       O  0.94041388  0.23405887  0.30773553    -0.73900
O1454       O  0.50514155  0.32394311  0.33746306    -0.74400
O1455       O  0.00278583  0.28536120  0.39820773    -0.74300
O1456       O  0.51790352  0.25251873  0.40264913    -0.74100
C1457       C  0.58714508  0.28514510  0.32453352     0.77700
C1458       C  0.50161809  0.25588958  0.23196462     0.78200
C1459       C  0.00966743  0.19770602  0.31892574     0.77200
C1460       C  0.93649242  0.25490865  0.32113547     0.77500
C1461       C  0.52293689  0.34160386  0.31520770     0.78700
C1462       C  0.01274443  0.27050641  0.41461241     0.77700
Zn1463     Zn  0.70410807  0.45320226  0.36634469     1.49700
Zn1464     Zn  0.74815373  0.46008172  0.30450908     1.49400
Zn1465     Zn  0.72012366  0.00115741  0.29825114     1.49100
Zn1466     Zn  0.77484967  0.02695952  0.35507962     1.49500
O1467       O  0.73382027  0.48045586  0.33320381    -1.83500
O1468       O  0.70034809  0.40997819  0.36101286    -0.74200
O1469       O  0.74694866  0.46591443  0.25466919    -0.74000
O1470       O  0.66746118  0.46590977  0.30624279    -0.73500
O1471       O  0.72792897  0.41702579  0.31496756    -0.74200
O1472       O  0.66700078  0.46091624  0.36139591    -0.73800
O1473       O  0.73025747  0.00220344  0.24922885    -0.74400
O1474       O  0.76601110  0.06270869  0.34577632    -0.73800
O1475       O  0.80368288  0.99158600  0.31108474    -0.74500
O1476       O  0.72639936  0.04116696  0.31021857    -0.73900
O1477       O  0.81814773  0.03113456  0.34535378    -0.74400
O1478       O  0.76851618  0.01952585  0.40604174    -0.74300
O1479       O  0.72070453  0.46723606  0.41422975    -0.74100
C1480       C  0.71261733  0.40058964  0.33940161     0.77700
C1481       C  0.73524089  0.47866921  0.23754694     0.78200
C1482       C  0.65660365  0.46675248  0.33453648     0.77200
C1483       C  0.74443694  0.06320854  0.32891378     0.77500
C1484       C  0.82416593  0.01318503  0.32827703     0.78700
C1485       C  0.74382550  0.49070217  0.42668405     0.77700
Zn1486     Zn  0.73304280  0.26189538  0.37573284     1.49700
Zn1487     Zn  0.71178830  0.21412626  0.31445035     1.49400
Zn1488     Zn  0.77735623  0.27611536  0.31550741     1.49100
Zn1489     Zn  0.76438294  0.22604030  0.37102335     1.49500
O1490       O  0.74648729  0.24347798  0.34285055    -1.83500
O1491       O  0.69502275  0.25791482  0.36001097    -0.74200
O1492       O  0.72366940  0.22197553  0.26483538    -0.74000
O1493       O  0.76938655  0.31206940  0.32224188    -0.73500
O1494       O  0.67594811  0.22401329  0.31858832    -0.74200
O1495       O  0.75958582  0.30655380  0.37648587    -0.73800
O1496       O  0.76814474  0.26488002  0.26635441    -0.74400
O1497       O  0.80628614  0.23971067  0.35645488    -0.73800
O1498       O  0.70538243  0.17035151  0.32438750    -0.74500
O1499       O  0.81974502  0.27916827  0.32244766    -0.73900
O1500       O  0.74350030  0.18292889  0.36094022    -0.74400
O1501       O  0.76189546  0.23045709  0.42151648    -0.74300
O1502       O  0.72878016  0.24659241  0.42274687    -0.74100
C1503       C  0.67489411  0.24400083  0.33759116     0.77700
C1504       C  0.74658389  0.24320141  0.24979941     0.78200
C1505       C  0.76008551  0.31916988  0.34873714     0.77200
C1506       C  0.82554896  0.25999202  0.33709889     0.77500
C1507       C  0.72201891  0.16331380  0.34274615     0.78700
C1508       C  0.74441215  0.23691714  0.43790996     0.77700
Zn1509     Zn  0.52669144  0.00201004  0.02722665     1.49700
Zn1510     Zn  0.51268514  0.03728499  0.96848725     1.49400
Zn1511     Zn  0.95887263  0.46731138  0.96641226     1.49100
Zn1512     Zn  0.95227139  0.50050089  0.02889990     1.49500
O1513       O  0.98195925  0.50045827  0.99735235    -1.83500
O1514       O  0.56900779  0.04094867  0.01892992    -0.74200
O1515       O  0.50730435  0.02742882  0.91803428    -0.74000
O1516       O  0.96577563  0.43467725  0.98050896    -0.73500
O1517       O  0.55571661  0.06421649  0.98047714    -0.74200
O1518       O  0.52229565  0.45934181  0.02747729    -0.73800
O1519       O  0.96900229  0.47521076  0.91718140    -0.74400
O1520       O  0.91527711  0.45660174  0.02738957    -0.73800
O1521       O  0.49683796  0.06403612  0.98078415    -0.74500
O1522       O  0.91461291  0.44998536  0.97270138    -0.73900
O1523       O  0.95512131  0.04266174  0.02910301    -0.74400
O1524       O  0.96675797  0.50386898  0.07712837    -0.74300
O1525       O  0.51901499  0.00673799  0.07618062    -0.74100
C1526       C  0.57497975  0.06455292  0.00134105     0.77700
C1527       C  0.98568651  0.49968466  0.90126114     0.78200
C1528       C  0.51521991  0.44278389  0.00100022     0.77200
C1529       C  0.90506724  0.43905571  0.00171466     0.77500
C1530       C  0.96774188  0.06331606  0.00654768     0.78700
C1531       C  0.98851899  0.50184930  0.09065402     0.77700
Zn1532     Zn  0.95663297  0.24928754  0.01957951     1.49700
Zn1533     Zn  0.52099664  0.25147768  0.01988039     1.49400
Zn1534     Zn  0.97037825  0.22236665  0.95671532     1.49100
Zn1535     Zn  0.50417288  0.28680206  0.96518903     1.49500
O1536       O  0.48789137  0.25228687  0.99421881    -1.83500
O1537       O  0.97002709  0.25216213  0.06787356    -0.74200
O1538       O  0.51667805  0.20868435  0.01391063    -0.74000
O1539       O  0.92526392  0.20021684  0.95971507    -0.73500
O1540       O  0.51383453  0.25309756  0.06943938    -0.74200
O1541       O  0.92193606  0.20498642  0.01436144    -0.73800
O1542       O  0.97914621  0.19077609  0.97088899    -0.74400
O1543       O  0.50250971  0.27845713  0.91538355    -0.73800
O1544       O  0.56271388  0.29143676  0.01219026    -0.74500
O1545       O  0.98248406  0.23419028  0.90872290    -0.73900
O1546       O  0.54649186  0.31506915  0.97805894    -0.74400
O1547       O  0.48586038  0.31156113  0.97511890    -0.74300
O1548       O  0.94920146  0.28538705  0.01442354    -0.74100
C1549       C  0.49236477  0.25217446  0.08663983     0.77700
C1550       C  0.49537061  0.18512076  0.99889225     0.78200
C1551       C  0.91353467  0.18845930  0.98782910     0.77200
C1552       C  0.49311093  0.25390745  0.89871931     0.77500
C1553       C  0.56711832  0.31550339  0.99662173     0.78700
C1554       C  0.96462698  0.30993396  0.99767676     0.77700
Zn1555     Zn  0.72722279  0.49528822  0.02491519     1.49700
Zn1556     Zn  0.78627552  0.02857095  0.96887462     1.49400
Zn1557     Zn  0.79623002  0.99807146  0.02962510     1.49100
Zn1558     Zn  0.74321568  0.45749138  0.97217446     1.49500
O1559       O  0.75930009  0.49219902  0.00138402    -1.83500
O1560       O  0.74021284  0.04216327  0.01673119    -0.74200
O1561       O  0.83005096  0.04240118  0.97015695    -0.74000
O1562       O  0.78225921  0.99621089  0.07710437    -0.73500
O1563       O  0.78258514  0.06233445  0.98660277    -0.74200
O1564       O  0.73202353  0.49083493  0.07471736    -0.73800
O1565       O  0.83376592  0.04164616  0.02501370    -0.74400
O1566       O  0.76314031  0.43401617  0.98364714    -0.73800
O1567       O  0.77392750  0.02124039  0.92106923    -0.74500
O1568       O  0.79607324  0.45774260  0.02598658    -0.73900
O1569       O  0.74590214  0.46661503  0.92172760    -0.74400
O1570       O  0.70065346  0.42968414  0.98473102    -0.74300
O1571       O  0.68480352  0.45675086  0.01367217    -0.74100
C1572       C  0.76397841  0.06546576  0.00489126     0.77700
C1573       C  0.84273821  0.05609179  0.99730143     0.78200
C1574       C  0.75218648  0.48974424  0.09305763     0.77200
C1575       C  0.78165847  0.43492323  0.00598776     0.77500
C1576       C  0.75726729  0.49229417  0.90698127     0.78700
C1577       C  0.68002147  0.43149218  0.00058241     0.77700
Zn1578     Zn  0.73161234  0.24664839  0.03424763     1.49700
Zn1579     Zn  0.79580948  0.24800906  0.04388827     1.49400
Zn1580     Zn  0.74866371  0.20731755  0.98399689     1.49100
Zn1581     Zn  0.78494589  0.27456197  0.97919811     1.49500
O1582       O  0.76402159  0.24310622  0.01155423    -1.83500
O1583       O  0.73658750  0.24481828  0.08518210    -0.74200
O1584       O  0.80199483  0.21052872  0.03920416    -0.74000
O1585       O  0.70643536  0.17983937  0.99691478    -0.73500
O1586       O  0.78101010  0.24655508  0.09131018    -0.74200
O1587       O  0.68963970  0.20735749  0.02330856    -0.73800
O1588       O  0.76903575  0.18494085  0.99745043    -0.74400
O1589       O  0.77274465  0.26326045  0.93136692    -0.73800
O1590       O  0.83180271  0.29241259  0.03838180    -0.74500
O1591       O  0.74979314  0.21317930  0.93284823    -0.73900
O1592       O  0.82922110  0.29125973  0.98332942    -0.74400
O1593       O  0.77837254  0.30811006  0.99051792    -0.74300
O1594       O  0.73871387  0.29066342  0.02481700    -0.74100
C1595       C  0.75743163  0.24535299  0.10390471     0.77700
C1596       C  0.78783158  0.18705158  0.02004486     0.78200
C1597       C  0.68534708  0.18191533  0.01128849     0.77200
C1598       C  0.75961080  0.23777982  0.91623180     0.77500
C1599       C  0.84051341  0.30622388  0.01025736     0.78700
C1600       C  0.76004818  0.31238656  0.00793250     0.77700
Zn1601     Zn  0.52887229  0.00251330  0.63395531     1.49700
Zn1602     Zn  0.99803794  0.45816726  0.69311646     1.49400
Zn1603     Zn  0.49458220  0.02022220  0.68824253     1.49100
Zn1604     Zn  0.96332318  0.46988256  0.63126071     1.49500
O1605       O  0.99688969  0.48818550  0.66259575    -1.83500
O1606       O  0.54916486  0.97786811  0.63453159    -0.74200
O1607       O  0.99576978  0.46956138  0.74192058    -0.74000
O1608       O  0.53689823  0.05961552  0.68363720    -0.73500
O1609       O  0.54221283  0.46757387  0.68670999    -0.74200
O1610       O  0.56027358  0.04161326  0.65190473    -0.73800
O1611       O  0.49226427  0.01247287  0.73844836    -0.74400
O1612       O  0.93621889  0.48620545  0.63942781    -0.73800
O1613       O  0.95776814  0.41628337  0.68599906    -0.74500
O1614       O  0.96151114  0.02673773  0.68485899    -0.73900
O1615       O  0.93714052  0.42658137  0.64165394    -0.74400
O1616       O  0.97369193  0.47686442  0.58212168    -0.74300
O1617       O  0.51927511  0.00721532  0.58601049    -0.74100
C1618       C  0.55940604  0.47668986  0.66073964     0.77700
C1619       C  0.99475884  0.49183976  0.75552197     0.78200
C1620       C  0.56121480  0.06212597  0.67092390     0.77200
C1621       C  0.93845210  0.00892840  0.66625860     0.77500
C1622       C  0.93569019  0.40877695  0.66498765     0.78700
C1623       C  0.99875931  0.49492489  0.56813802     0.77700
Zn1624     Zn  0.00167889  0.22770769  0.68390733     1.49700
Zn1625     Zn  0.50496955  0.29070348  0.68781091     1.49400
Zn1626     Zn  0.53704706  0.27535142  0.62842596     1.49100
Zn1627     Zn  0.97076600  0.24251769  0.62317010     1.49500
O1628       O  0.00373907  0.25980279  0.65511110    -1.83500
O1629       O  0.00061131  0.23840069  0.73246540    -0.74200
O1630       O  0.54397015  0.33147455  0.67857246    -0.74000
O1631       O  0.56584085  0.26368154  0.64449033    -0.73500
O1632       O  0.50680634  0.28075833  0.73701513    -0.74200
O1633       O  0.54389617  0.22710108  0.68259587    -0.73800
O1634       O  0.56132519  0.31984448  0.63301611    -0.74400
O1635       O  0.98135840  0.25713191  0.57526662    -0.73800
O1636       O  0.96002997  0.28679849  0.67849153    -0.74500
O1637       O  0.52728992  0.26516498  0.57935812    -0.73900
O1638       O  0.93878149  0.24903889  0.64097089    -0.74400
O1639       O  0.95036985  0.19748320  0.62268585    -0.74300
O1640       O  0.95934266  0.19000237  0.67552758    -0.74100
C1641       C  0.00343532  0.26162245  0.74802728     0.77700
C1642       C  0.56403403  0.33864816  0.65571227     0.78200
C1643       C  0.56755053  0.24634615  0.66629430     0.77200
C1644       C  0.00513506  0.26134537  0.56014829     0.77500
C1645       C  0.93657914  0.26590577  0.66299243     0.78700
C1646       C  0.94158906  0.18237367  0.64978431     0.77700
Zn1647     Zn  0.78983961  0.03181340  0.69523988     1.49700
Zn1648     Zn  0.75301885  0.04161721  0.63460218     1.49400
Zn1649     Zn  0.75250390  0.47726087  0.64267919     1.49100
Zn1650     Zn  0.72146134  0.49946259  0.69901381     1.49500
O1651       O  0.75426485  0.51178614  0.66740921    -1.83500
O1652       O  0.81394810  0.07509410  0.68640467    -0.74200
O1653       O  0.75406239  0.02980204  0.58534182    -0.74000
O1654       O  0.79334393  0.47676818  0.65174349    -0.73500
O1655       O  0.79292940  0.08402558  0.64147963    -0.74200
O1656       O  0.81799285  0.01740146  0.68552771    -0.73800
O1657       O  0.75217271  0.48374324  0.59188648    -0.74400
O1658       O  0.68950334  0.45960761  0.68536779    -0.73800
O1659       O  0.70908911  0.03519930  0.64164516    -0.74500
O1660       O  0.70973512  0.43928938  0.65177793    -0.73900
O1661       O  0.70209140  0.52494074  0.69630212    -0.74400
O1662       O  0.73028418  0.49504969  0.74719864    -0.74300
O1663       O  0.78187551  0.02507952  0.74444463    -0.74100
C1664       C  0.81488384  0.09241983  0.66291024     0.77700
C1665       C  0.75310856  0.50484529  0.57350077     0.78200
C1666       C  0.81732214  0.49637830  0.66788436     0.77200
C1667       C  0.68703019  0.43776803  0.66762623     0.77500
C1668       C  0.69215926  0.02626912  0.66780880     0.78700
C1669       C  0.75552596  0.50579771  0.76268575     0.77700
Zn1670     Zn  0.77691693  0.26317897  0.64629181     1.49700
Zn1671     Zn  0.70986406  0.22841165  0.64989803     1.49400
Zn1672     Zn  0.74746964  0.21011905  0.70118297     1.49100
Zn1673     Zn  0.74931582  0.27487697  0.70926016     1.49500
O1674       O  0.74502188  0.24318617  0.67801562    -1.83500
O1675       O  0.76644529  0.24947233  0.59850139    -0.74200
O1676       O  0.68130802  0.18716278  0.66406417    -0.74000
O1677       O  0.78962459  0.21410321  0.69060856    -0.73500
O1678       O  0.71649901  0.22868341  0.59974771    -0.74200
O1679       O  0.81003150  0.25717700  0.66106787    -0.73800
O1680       O  0.70660171  0.16918882  0.69330616    -0.74400
O1681       O  0.74936911  0.26075925  0.75664158    -0.73800
O1682       O  0.68759386  0.24925392  0.66028649    -0.74500
O1683       O  0.74900275  0.21696782  0.75185345    -0.73900
O1684       O  0.71078843  0.27951892  0.70458419    -0.74400
O1685       O  0.79310678  0.31184059  0.70287886    -0.74300
O1686       O  0.79418707  0.30762879  0.64793193    -0.74100
C1687       C  0.74086463  0.23725933  0.58340373     0.77700
C1688       C  0.68181638  0.16603554  0.68054996     0.78200
C1689       C  0.81265088  0.23712048  0.67737096     0.77200
C1690       C  0.74963291  0.23801447  0.77000916     0.77500
C1691       C  0.68834195  0.26650089  0.68377198     0.78700
C1692       C  0.80764015  0.32049517  0.67520928     0.77700
C1693       C  0.90883532  0.15880460  0.65258642    -0.04900
C1694       C  0.89494773  0.15314091  0.68422959    -0.32300
C1695       C  0.86340611  0.13451753  0.68743652     0.36900
C1696       C  0.84478828  0.12050615  0.65880663    -0.05200
C1697       C  0.85841341  0.12709591  0.62701621    -0.32200
C1698       C  0.89004312  0.14591968  0.62375320     0.41700
H1699       H  0.90851198  0.16362217  0.70667744     0.17200
O1700       O  0.85109042  0.12893808  0.71902505    -0.59700
H1701       H  0.84483571  0.11591422  0.60478371     0.17200
O1702       O  0.90236659  0.15103465  0.59220672    -0.59800
H1703       H  0.90780994  0.13496285  0.58877548     0.44200
H1704       H  0.84435966  0.14406482  0.72225721     0.44200
C1705       C  0.59356485  0.36747520  0.65755068    -0.04900
C1706       C  0.60586029  0.37994928  0.68926137    -0.32300
C1707       C  0.63671707  0.40164307  0.69297480     0.36900
C1708       C  0.65601874  0.41134674  0.66472439    -0.05200
C1709       C  0.64354805  0.39996291  0.63284812    -0.32200
C1710       C  0.61259654  0.37834041  0.62906955     0.36900
H1711       H  0.59193397  0.37173329  0.71155614     0.17200
O1712       O  0.64786927  0.41319670  0.72447137    -0.59700
H1713       H  0.65761836  0.40847606  0.61068425     0.17200
O1714       O  0.60100745  0.36815730  0.59733596    -0.59800
H1715       H  0.60866982  0.35434894  0.59070444     0.44200
H1716       H  0.65687346  0.40103036  0.73308039     0.44200
C1717       C  0.90529548  0.25856853  0.67146401    -0.04900
C1718       C  0.88156304  0.22803687  0.66792009    -0.32300
C1719       C  0.85110394  0.21994137  0.67231627     0.36900
C1720       C  0.84392862  0.24247248  0.68048764    -0.05200
C1721       C  0.86771280  0.27261540  0.68615023    -0.32200
C1722       C  0.89820903  0.28071509  0.68189116     0.36900
H1723       H  0.88655766  0.21037426  0.66074344     0.17200
O1724       O  0.82857573  0.19043624  0.66661700    -0.59700
H1725       H  0.86249439  0.29030261  0.69249303     0.17200
O1726       O  0.92061468  0.31045049  0.68647105    -0.59800
H1727       H  0.92210964  0.32051277  0.66457980     0.44200
H1728       H  0.82499828  0.18883198  0.64191110     0.44200
C1729       C  0.59895869  0.25199273  0.67357094    -0.04900
C1730       C  0.62340074  0.27541866  0.65552861    -0.32300
C1731       C  0.65356800  0.28340248  0.66204456     0.36900
C1732       C  0.66037250  0.26813533  0.68696535    -0.05200
C1733       C  0.63642618  0.24551709  0.70600366    -0.32200
C1734       C  0.60592947  0.23742797  0.69955125     0.36900
H1735       H  0.61930652  0.28758846  0.63561340     0.17200
O1736       O  0.67610284  0.30448343  0.64193963    -0.59700
H1737       H  0.64119573  0.23255646  0.72433599     0.17200
O1738       O  0.58330066  0.21495955  0.71830977    -0.59800
H1739       H  0.57766273  0.19571840  0.70621154     0.44200
H1740       H  0.68428470  0.32409444  0.65424144     0.44200
C1741       C  0.84117059  0.34255491  0.67411254    -0.04900
C1742       C  0.85587921  0.34829696  0.64282670    -0.32300
C1743       C  0.88740566  0.36686680  0.64020470     0.36900
C1744       C  0.90548060  0.38089515  0.66903084    -0.05200
C1745       C  0.89127750  0.37402436  0.70062640    -0.32200
C1746       C  0.85946337  0.35504795  0.70333114     0.36900
H1747       H  0.84290327  0.33843082  0.61988857     0.17200
O1748       O  0.90020642  0.37255819  0.60885696    -0.59700
H1749       H  0.90455463  0.38497638  0.72309694     0.17200
O1750       O  0.84662108  0.34913115  0.73462541    -0.59800
H1751       H  0.84221980  0.36580731  0.73903201     0.44200
H1752       H  0.90758186  0.35789364  0.60616760     0.44200
C1753       C  0.59195431  0.08837645  0.67843723    -0.04900
C1754       C  0.61756737  0.08457705  0.67446836    -0.32300
C1755       C  0.64729423  0.10914875  0.67786843     0.36900
C1756       C  0.65191563  0.13822931  0.68487372    -0.05200
C1757       C  0.62645580  0.14170281  0.69110190    -0.32200
C1758       C  0.59670199  0.11707301  0.68815989     0.36900
H1759       H  0.61461459  0.06251989  0.66778655     0.17200
O1760       O  0.67145434  0.10494827  0.67147044    -0.59700
H1761       H  0.62966132  0.16402606  0.69691743     0.17200
O1762       O  0.57261416  0.12166403  0.69345149    -0.59800
H1763       H  0.56883490  0.12856775  0.67147977     0.44200
H1764       H  0.67634042  0.09885507  0.69335309     0.44200
C1765       C  0.90935043  0.00944455  0.66589247    -0.04900
C1766       C  0.89740757  0.01321639  0.69597876    -0.32300
C1767       C  0.86723938  0.00719924  0.69734018     0.36900
C1768       C  0.84709318  0.49730290  0.66565086    -0.05200
C1769       C  0.85570799  0.48933617  0.63561179    -0.32200
C1770       C  0.88542342  0.49454054  0.63157503     0.36900
H1771       H  0.91105818  0.01962837  0.71885516     0.17200
O1772       O  0.85650942  0.01103354  0.72745234    -0.59700
H1773       H  0.83966167  0.47988895  0.61479130     0.17200
O1774       O  0.89284318  0.48657509  0.60160360    -0.59800
H1775       H  0.90034634  0.50489737  0.58721960     0.44200
H1776       H  0.84457102  0.99026542  0.73696395     0.44200
C1777       C  0.59315834  0.48840977  0.66291157    -0.04900
C1778       C  0.61121132  0.50071323  0.63388925    -0.32300
C1779       C  0.64324040  0.51521962  0.63525871     0.36900
C1780       C  0.65874330  0.01576613  0.66612552    -0.05200
C1781       C  0.64113509  0.00422119  0.69551271    -0.32200
C1782       C  0.60915879  0.98945630  0.69457187     0.36900
H1783       H  0.60050618  0.49939152  0.60973801     0.17200
O1784       O  0.65932405  0.52642706  0.60613290    -0.59700
H1785       H  0.65213330  0.00606062  0.71960401     0.17200
O1786       O  0.59349920  0.97873191  0.72402851    -0.59800
H1787       H  0.59443756  0.99673242  0.73507839     0.44200
H1788       H  0.65915318  0.50874788  0.59520602     0.44200
C1789       C  0.75613596  0.23724874  0.87888519    -0.04900
C1790       C  0.74910184  0.21089708  0.86023738    -0.32300
C1791       C  0.74677195  0.21052165  0.82489425     0.36900
C1792       C  0.75130302  0.23678277  0.80744551    -0.05200
C1793       C  0.75792476  0.26288217  0.82624721    -0.32200
C1794       C  0.76052667  0.26338738  0.86131918     0.36900
H1795       H  0.74575983  0.19057547  0.87302049     0.17200
O1796       O  0.74030298  0.18442631  0.80781141    -0.59700
H1797       H  0.76149915  0.28340199  0.81373747     0.17200
O1798       O  0.76671401  0.28954047  0.87813984    -0.59800
H1799       H  0.78907479  0.30296385  0.87684189     0.44200
H1800       H  0.71776936  0.17231911  0.80660290     0.44200
C1801       C  0.78295020  0.40663826  0.00960950    -0.04900
C1802       C  0.78609057  0.39323507  0.98026281    -0.32300
C1803       C  0.77774403  0.36248647  0.97940086     0.36900
C1804       C  0.76553378  0.34404951  0.00823323    -0.05200
C1805       C  0.76295522  0.35754441  0.03798197    -0.32200
C1806       C  0.77151529  0.38862259  0.03876687     0.36900
H1807       H  0.79360897  0.40636273  0.95725144     0.17200
O1808       O  0.78012253  0.35022874  0.94954599    -0.59700
H1809       H  0.75442754  0.34406507  0.06062106     0.17200
O1810       O  0.76711420  0.40078111  0.06757332    -0.59800
H1811       H  0.74548476  0.39551772  0.06664407     0.44200
H1812       H  0.80204490  0.35690801  0.94743845     0.44200
C1813       C  0.77208081  0.09746103  0.01274387    -0.04900
C1814       C  0.79737298  0.12153022  0.99646574    -0.32300
C1815       C  0.80577417  0.15198665  0.00214649     0.36900
C1816       C  0.78945829  0.15920494  0.02498604    -0.05200
C1817       C  0.76573577  0.13557588  0.04319746    -0.32200
C1818       C  0.75690430  0.10492124  0.03718951     0.36900
H1819       H  0.81024034  0.11686715  0.97816773     0.17200
O1820       O  0.82886191  0.17446861  0.98380478    -0.59700
H1821       H  0.75231996  0.14076406  0.06017694     0.17200
O1822       O  0.73317100  0.08261006  0.05493105    -0.59800
H1823       H  0.71458387  0.07853628  0.04219623     0.44200
H1824       H  0.81938785  0.17499328  0.96203907     0.44200
C1825       C  0.75610809  0.50082631  0.79931281    -0.04900
C1826       C  0.78285535  0.02670403  0.81540326    -0.32300
C1827       C  0.78434984  0.02443272  0.85025587     0.36900
C1828       C  0.75727153  0.49430692  0.86985275    -0.05200
C1829       C  0.73320768  0.47196693  0.85044882    -0.32200
C1830       C  0.73241881  0.47514925  0.81540578     0.36900
H1831       H  0.80032195  0.04692326  0.80310237     0.17200
O1832       O  0.80826437  0.04756003  0.86757574    -0.59700
H1833       H  0.71465005  0.45242613  0.86252542     0.17200
O1834       O  0.70836662  0.45309834  0.79721815    -0.59800
H1835       H  0.71547474  0.43932869  0.78877895     0.44200
H1836       H  0.82366659  0.04105375  0.86975425     0.44200
C1837       C  0.86362044  0.08983095  0.99607549    -0.04900
C1838       C  0.87117865  0.10411973  0.96441850    -0.32300
C1839       C  0.88568470  0.13583516  0.96130230     0.36900
C1840       C  0.89361412  0.15462344  0.99024136    -0.05200
C1841       C  0.88648395  0.14042757  0.02200853    -0.32200
C1842       C  0.87178561  0.10851064  0.02508023     0.36900
H1843       H  0.86509752  0.09059115  0.94155306     0.17200
O1844       O  0.89237804  0.14809433  0.92961013    -0.59700
H1845       H  0.89283349  0.15411970  0.04475388     0.17200
O1846       O  0.86480256  0.09593882  0.05658558    -0.59800
H1847       H  0.88259404  0.09404873  0.06368875     0.44200
H1848       H  0.87428106  0.14933802  0.92231540     0.44200
C1849       C  0.59581132  0.34546404  0.00047077    -0.04900
C1850       C  0.62311729  0.34704542  0.01044073    -0.32300
C1851       C  0.65034920  0.37519739  0.01184697     0.36900
C1852       C  0.65061103  0.40261966  0.00400749    -0.05200
C1853       C  0.62312446  0.40133001  0.99612509    -0.32200
C1854       C  0.59598875  0.37320089  0.99403308     0.36900
H1855       H  0.62358827  0.32638981  0.01622081     0.17200
O1856       O  0.67671674  0.37578479  0.02135959    -0.59700
H1857       H  0.62282207  0.42204853  0.99018709     0.17200
O1858       O  0.56960331  0.37322996  0.98616680    -0.59800
H1859       H  0.56973880  0.37540737  0.96132514     0.44200
H1860       H  0.68337462  0.36932434  0.00111358     0.44200
C1861       C  0.00231765  0.26141034  0.78553729    -0.04900
C1862       C  0.01017931  0.28839779  0.80332867    -0.32300
C1863       C  0.00779085  0.28848438  0.83852292     0.36900
C1864       C  0.49676854  0.25510830  0.86136432    -0.05200
C1865       C  0.49066993  0.22871645  0.84337532    -0.32200
C1866       C  0.49325681  0.22901550  0.80817375     0.36900
H1867       H  0.01802836  0.30961185  0.78991973     0.17200
O1868       O  0.01564207  0.31541480  0.85455790    -0.59700
H1869       H  0.48375613  0.20758175  0.85660344     0.17200
O1870       O  0.48653253  0.20245115  0.79198221    -0.59800
H1871       H  0.50581062  0.20191950  0.79222119     0.44200
H1872       H  0.99688988  0.31691844  0.85423089     0.44200
C1873       C  0.88631071  0.40512177  0.00527896    -0.04900
C1874       C  0.87720276  0.38709690  0.97592335    -0.32300
C1875       C  0.86440408  0.35543491  0.97718696     0.36900
C1876       C  0.85929962  0.34028584  0.00846799    -0.05200
C1877       C  0.86831005  0.35819079  0.03799662    -0.32200
C1878       C  0.88182920  0.39018763  0.03661475     0.36900
H1879       H  0.88075292  0.39764893  0.95139485     0.17200
O1880       O  0.85641898  0.33957137  0.94734426    -0.59700
H1881       H  0.86454674  0.34736659  0.06238082     0.17200
O1882       O  0.89145173  0.40657001  0.06604677    -0.59800
H1883       H  0.87357758  0.40758116  0.07429638     0.44200
H1884       H  0.87465998  0.33859441  0.94056803     0.44200
C1885       C  0.60337710  0.09452725  0.00643761    -0.04900
C1886       C  0.60283818  0.12143641  0.99805184    -0.32300
C1887       C  0.62870036  0.15038081  0.00176222     0.36900
C1888       C  0.65595133  0.15305255  0.01384202    -0.05200
C1889       C  0.65631493  0.12641806  0.02352255    -0.32200
C1890       C  0.63031086  0.09742941  0.02027164     0.36900
H1891       H  0.58220820  0.12013058  0.98827049     0.17200
O1892       O  0.62739595  0.17570839  0.99215570    -0.59700
H1893       H  0.67723696  0.12806844  0.03285553     0.17200
O1894       O  0.63176235  0.07221390  0.02997820    -0.59800
H1895       H  0.64003965  0.06680736  0.01027850     0.44200
H1896       H  0.63207487  0.17806439  0.96777503     0.44200
C1897       C  0.96322164  0.33743581  0.00506773    -0.04900
C1898       C  0.98669129  0.35977082  0.02525431    -0.32300
C1899       C  0.99394424  0.39030496  0.02389085     0.36900
C1900       C  0.50135979  0.40876213  0.00234616    -0.05200
C1901       C  0.48940748  0.39202742  0.97231680    -0.32200
C1902       C  0.47500546  0.36023082  0.97164750     0.36900
H1903       H  0.00085493  0.35384848  0.04040704     0.17200
O1904       O  0.01745164  0.41151787  0.04339341    -0.59700
H1905       H  0.49155830  0.40361422  0.94870217     0.17200
O1906       O  0.46617805  0.34556807  0.94109586    -0.59800
H1907       H  0.44506230  0.34133214  0.93742683     0.44200
H1908       H  0.03610013  0.41734017  0.03027960     0.44200
C1909       C  0.96712198  0.09203395  0.00761260    -0.04900
C1910       C  0.50882651  0.11878714  0.01427987    -0.32300
C1911       C  0.51410411  0.14866793  0.01386711     0.36900
C1912       C  0.49043379  0.15402472  0.00455340    -0.05200
C1913       C  0.97017856  0.13316161  0.97348089    -0.32200
C1914       C  0.96012853  0.10226110  0.97784468     0.36900
H1915       H  0.52775486  0.11511797  0.01958301     0.17200
O1916       O  0.54284918  0.17238184  0.02034204    -0.59700
H1917       H  0.96448785  0.14009380  0.94997246     0.17200
O1918       O  0.94439451  0.08216757  0.95220973    -0.59800
H1919       H  0.95997780  0.08495026  0.93547999     0.44200
H1920       H  0.54386479  0.17531420  0.04512818     0.44200
C1921       C  0.98880946  0.49819712  0.86394136    -0.04900
C1922       C  0.97728848  0.46962789  0.84798090    -0.32300
C1923       C  0.97953652  0.46717384  0.81301822     0.36900
C1924       C  0.99302159  0.49353462  0.79287532    -0.05200
C1925       C  0.50119188  0.02330136  0.80944880    -0.32200
C1926       C  0.50035401  0.02599506  0.84460285     0.36900
H1927       H  0.96640882  0.44889510  0.86263910     0.17200
O1928       O  0.96722427  0.43877196  0.79869046    -0.59700
H1929       H  0.50856735  0.04345774  0.79415835     0.17200
O1930       O  0.50897145  0.05399388  0.85837584    -0.59800
H1931       H  0.49048126  0.05593928  0.85737219     0.44200
H1932       H  0.98272523  0.43252947  0.80215703     0.44200
C1933       C  0.74239295  0.23391585  0.47510049    -0.04900
C1934       C  0.71771464  0.23339547  0.49156287    -0.32300
C1935       C  0.71624195  0.23321705  0.52672988     0.36900
C1936       C  0.73992236  0.23394692  0.54628611    -0.05200
C1937       C  0.76419350  0.23364029  0.52987896    -0.32200
C1938       C  0.76544869  0.23336367  0.49468243     0.36900
H1939       H  0.69964993  0.23372901  0.47713580     0.17200
O1940       O  0.69256484  0.23440182  0.54159757    -0.59700
H1941       H  0.78263735  0.23415148  0.54439601     0.17200
O1942       O  0.79024301  0.23440386  0.47984619    -0.59800
H1943       H  0.78563865  0.21295309  0.47905320     0.44200
H1944       H  0.67587850  0.21292804  0.54275713     0.44200
C1945       C  0.74868132  0.24306046  0.21235159    -0.04900
C1946       C  0.77726258  0.26018859  0.19715091    -0.32300
C1947       C  0.78027919  0.26112700  0.16208349     0.36900
C1948       C  0.75447049  0.24482696  0.14114413    -0.05200
C1949       C  0.72579623  0.22798877  0.15614851    -0.32200
C1950       C  0.72277686  0.22687129  0.19136343     0.36900
H1951       H  0.79754570  0.27296487  0.21252546     0.17200
O1952       O  0.80862043  0.27853028  0.14854771    -0.59700
H1953       H  0.70565632  0.21534566  0.14052572     0.17200
O1954       O  0.69434946  0.21007392  0.20486165    -0.59800
H1955       H  0.68670589  0.22455271  0.20739948     0.44200
H1956       H  0.81033963  0.29855333  0.14380217     0.44200
C1957       C  0.75252621  0.50164477  0.53590824    -0.04900
C1958       C  0.73730031  0.47248500  0.52107491    -0.32300
C1959       C  0.73479066  0.46861681  0.48586695     0.36900
C1960       C  0.74781774  0.49415359  0.46428724    -0.05200
C1961       C  0.76260609  0.02820022  0.47731033    -0.32200
C1962       C  0.76350117  0.03114367  0.51262379     0.36900
H1963       H  0.72662145  0.45245287  0.53687342     0.17200
O1964       O  0.71936892  0.43963090  0.47288603    -0.59700
H1965       H  0.76921211  0.04823602  0.46204428     0.17200
O1966       O  0.77293102  0.05931669  0.52640045    -0.59800
H1967       H  0.79524674  0.06862823  0.52950151     0.44200
H1968       H  0.73466608  0.43292700  0.47168516     0.44200
C1969       C  0.71445907  0.37240420  0.34380630    -0.04900
C1970       C  0.71850553  0.35905624  0.31466145    -0.32300
C1971       C  0.73371692  0.34237981  0.31582943     0.36900
C1972       C  0.74523543  0.33828936  0.34668277    -0.05200
C1973       C  0.73849358  0.34903638  0.37632412    -0.32200
C1974       C  0.72334965  0.36596996  0.37505370     0.36900
H1975       H  0.71189568  0.36361323  0.29026476     0.17200
O1976       O  0.73769188  0.33077115  0.28635636    -0.59700
H1977       H  0.74562714  0.34495259  0.40062874     0.17200
O1978       O  0.71917414  0.37775651  0.40428685    -0.59800
H1979       H  0.73853290  0.39705604  0.40826737     0.44200
H1980       H  0.71925320  0.31044088  0.28380827     0.44200
C1981       C  0.73779730  0.08848795  0.33228867    -0.04900
C1982       C  0.74056314  0.10188549  0.36386197    -0.32300
C1983       C  0.73163808  0.12370634  0.36854397     0.36900
C1984       C  0.72026395  0.13318516  0.34116022    -0.05200
C1985       C  0.71582124  0.11849402  0.31001463    -0.32200
C1986       C  0.72411393  0.09609617  0.30554870     0.36900
H1987       H  0.74929052  0.09513181  0.38519292     0.17200
O1988       O  0.73450559  0.13608792  0.40004223    -0.59700
H1989       H  0.70770084  0.12567159  0.28850704     0.17200
O1990       O  0.72016252  0.08287528  0.27438858    -0.59800
H1991       H  0.69834558  0.06694221  0.27319007     0.44200
H1992       H  0.75670512  0.14947010  0.40392808     0.44200
C1993       C  0.74804222  0.48666543  0.13013598    -0.04900
C1994       C  0.73956180  0.00740625  0.14185761    -0.32300
C1995       C  0.73626133  0.00711565  0.17684282     0.36900
C1996       C  0.73903892  0.48105953  0.20060747    -0.05200
C1997       C  0.76440405  0.48137420  0.18641567    -0.32200
C1998       C  0.76924103  0.48452295  0.15167824     0.36900
H1999       H  0.72931317  0.01754023  0.12633393     0.17200
O2000       O  0.72011023  0.01960077  0.19022099    -0.59700
H2001       H  0.78097270  0.47976180  0.20239789     0.17200
O2002       O  0.79469461  0.48521984  0.13921484    -0.59800
H2003       H  0.81101564  0.50684972  0.14088684     0.44200
H2004       H  0.73520049  0.04147323  0.19368041     0.44200
C2005       C  0.00981251  0.26777896  0.45189799    -0.04900
C2006       C  0.52154633  0.25396819  0.47261652    -0.32300
C2007       C  0.52185585  0.25321941  0.50773778     0.36900
C2008       C  0.00625809  0.26281011  0.52297443    -0.05200
C2009       C  0.99142959  0.27576388  0.50535811    -0.32200
C2010       C  0.99320407  0.27845435  0.47019739     0.36900
H2011       H  0.53608076  0.24768267  0.45915238     0.17200
O2012       O  0.53991522  0.24393200  0.52370136    -0.59700
H2013       H  0.97890527  0.28442748  0.51896012     0.17200
O2014       O  0.97901620  0.29202478  0.45419337    -0.59800
H2015       H  0.95790090  0.27535440  0.44986446     0.44200
H2016       H  0.52674982  0.22167018  0.52670212     0.44200
C2017       C  0.90682150  0.25400457  0.32022269    -0.04900
C2018       C  0.90603946  0.28046796  0.31082275    -0.32300
C2019       C  0.87981459  0.28282500  0.31530389     0.36900
C2020       C  0.85400476  0.25889699  0.33060959    -0.05200
C2021       C  0.85470092  0.23209032  0.33902430    -0.32200
C2022       C  0.88065587  0.22954156  0.33384809     0.36900
H2023       H  0.92619289  0.29973875  0.30057347     0.17200
O2024       O  0.88021681  0.30906365  0.30592542    -0.59700
H2025       H  0.83503433  0.21286315  0.35004776     0.17200
O2026       O  0.88064605  0.20358628  0.34366964    -0.59800
H2027       H  0.88644699  0.20671360  0.36787569     0.44200
H2028       H  0.87396703  0.30602134  0.28184439     0.44200
C2029       C  0.61281957  0.27892046  0.32433533    -0.04900
C2030       C  0.62963338  0.28402846  0.35414082    -0.32300
C2031       C  0.64863673  0.27177186  0.35897838     0.36900
C2032       C  0.65177228  0.25393992  0.33345005    -0.05200
C2033       C  0.63557869  0.24947893  0.30303582    -0.32200
C2034       C  0.61606627  0.26160750  0.29847530     0.36900
H2035       H  0.62704303  0.29661777  0.37466808     0.17200
O2036       O  0.66297765  0.27630104  0.38968170    -0.59700
H2037       H  0.63798172  0.23655942  0.28278222     0.17200
O2038       O  0.59928022  0.25521189  0.26927831    -0.59800
H2039       H  0.57992364  0.23622170  0.27393730     0.44200
H2040       H  0.67965077  0.29781280  0.38966225     0.44200
C2041       C  0.49959120  0.25405600  0.19471977    -0.04900
C2042       C  0.97576169  0.24363247  0.17504101    -0.32300
C2043       C  0.97215787  0.24156568  0.13992964     0.36900
C2044       C  0.49451830  0.25237721  0.12374210    -0.05200
C2045       C  0.52287696  0.27005053  0.13958135    -0.32200
C2046       C  0.52557558  0.27107748  0.17468679     0.36900
H2047       H  0.95605957  0.23013378  0.19052172     0.17200
O2048       O  0.94395492  0.22231529  0.12634640    -0.59700
H2049       H  0.54301698  0.28350199  0.12467594     0.17200
O2050       O  0.55378027  0.28885588  0.18905808    -0.59800
H2051       H  0.56240369  0.27520157  0.19172045     0.44200
H2052       H  0.94381420  0.20299864  0.12180556     0.44200
C2053       C  0.00342893  0.50845205  0.46101414    -0.04900
C2054       C  0.97661350  0.50148550  0.47794477    -0.32300
C2055       C  0.97446039  0.49648637  0.51282249     0.36900
C2056       C  0.99978875  0.49956871  0.53130282    -0.05200
C2057       C  0.51210017  0.02226525  0.51803143    -0.32200
C2058       C  0.51342833  0.02611365  0.48310726     0.36900
H2059       H  0.95708795  0.49914117  0.46399765     0.17200
O2060       O  0.94787062  0.48951267  0.52868125    -0.59700
H2061       H  0.52396928  0.04215848  0.53412207     0.17200
O2062       O  0.52997387  0.05489515  0.47012960    -0.59800
H2063       H  0.55049630  0.05777090  0.46602722     0.44200
H2064       H  0.93453902  0.46721909  0.52563957     0.44200
C2065       C  0.01656792  0.42027790  0.31647581    -0.04900
C2066       C  0.53683694  0.42114586  0.32432835    -0.32300
C2067       C  0.54338714  0.39751559  0.32142815     0.36900
C2068       C  0.52102422  0.36915791  0.30915435    -0.05200
C2069       C  0.01495778  0.37757008  0.28649828    -0.32200
C2070       C  0.00389416  0.39783949  0.29107877     0.36900
H2071       H  0.55437406  0.44265786  0.33464877     0.17200
O2072       O  0.57096009  0.40180587  0.33249717    -0.59700
H2073       H  0.00339531  0.35897720  0.26865126     0.17200
O2074       O  0.98042451  0.39502687  0.27111203    -0.59800
H2075       H  0.96163488  0.37981729  0.28257304     0.44200
H2076       H  0.56875951  0.39827086  0.35713908     0.44200
C2077       C  0.01425028  0.17126027  0.31568579    -0.04900
C2078       C  0.53322923  0.16567147  0.34726615    -0.32300
C2079       C  0.54131907  0.14304173  0.34663904     0.36900
C2080       C  0.52887110  0.12011605  0.32203920    -0.05200
C2081       C  0.99620198  0.11754792  0.32228524    -0.32200
C2082       C  0.99005752  0.14137092  0.31844320     0.36900
H2083       H  0.54331339  0.18298216  0.36672631     0.17200
O2084       O  0.56074178  0.14295872  0.37086549    -0.59700
H2085       H  0.97722018  0.09469997  0.32577984     0.17200
O2086       O  0.96063543  0.13547827  0.32039793    -0.59800
H2087       H  0.95239630  0.13010527  0.29708710     0.44200
H2088       H  0.54765040  0.13205919  0.39030259     0.44200
C2089       C  0.85429090  0.01446030  0.32945655    -0.04900
C2090       C  0.87144988  0.02247060  0.35934818    -0.32300
C2091       C  0.89618908  0.01741670  0.36328672     0.36900
C2092       C  0.89716894  0.49318133  0.33450192    -0.05200
C2093       C  0.87377927  0.47437750  0.31210040    -0.32200
C2094       C  0.84675760  0.47567665  0.30984818     0.36900
H2095       H  0.86495551  0.03156182  0.38034531     0.17200
O2096       O  0.91174389  0.02512849  0.39342255    -0.59700
H2097       H  0.87659695  0.45893560  0.29565825     0.17200
O2098       O  0.82512667  0.45714550  0.28671188    -0.59800
H2099       H  0.81403020  0.43687648  0.29757193     0.44200
H2100       H  0.92530923  0.04754459  0.39259756     0.44200
C2101       C  0.60676541  0.01370937  0.33636886    -0.04900
C2102       C  0.60604096  0.49852774  0.30529099    -0.32300
C2103       C  0.62068632  0.48120787  0.30591744     0.36900
C2104       C  0.63537146  0.47930075  0.33560354    -0.05200
C2105       C  0.63852144  0.99625868  0.36458969    -0.32200
C2106       C  0.62146130  0.01126872  0.36569162     0.36900
H2107       H  0.59443492  0.49880970  0.28236574     0.17200
O2108       O  0.62060575  0.46634090  0.27704192    -0.59700
H2109       H  0.65041988  0.99574708  0.38715819     0.17200
O2110       O  0.61940354  0.02354623  0.39564024    -0.59800
H2111       H  0.63544054  0.04531729  0.39475117     0.44200
H2112       H  0.60275351  0.44556180  0.27900081     0.44200
C2113       C  0.99699559  0.50608476  0.19917917    -0.04900
C2114       C  0.52802620  0.02737080  0.18175984    -0.32300
C2115       C  0.52720278  0.02626056  0.14644404     0.36900
C2116       C  0.99179554  0.50327155  0.12783477    -0.05200
C2117       C  0.96588498  0.48782214  0.14791366    -0.32200
C2118       C  0.96831649  0.48860232  0.18317162     0.36900
H2119       H  0.54993850  0.03959995  0.19440011     0.17200
O2120       O  0.55394793  0.04162059  0.12913354    -0.59700
H2121       H  0.94363365  0.47463628  0.13618926     0.17200
O2122       O  0.94233579  0.47275827  0.20163754    -0.59800
H2123       H  0.93880482  0.45168379  0.20287753     0.44200
H2124       H  0.56315080  0.02836677  0.13017245     0.44200
Zn2125     Zn  0.99211644  0.53293491  0.35887789     1.49700
Zn2126     Zn  0.97995751  0.98589048  0.31154182     1.49400
Zn2127     Zn  0.53931048  0.54237702  0.30048192     1.49100
Zn2128     Zn  0.52373702  0.99466216  0.36106446     1.49500
O2129       O  0.50663204  0.51483229  0.33018684    -1.83500
O2130       O  0.95385866  0.02196312  0.35836011    -0.74200
O2131       O  0.98666684  0.99605556  0.26200455    -0.74000
O2132       O  0.54538513  0.58559135  0.30722224    -0.73500
O2133       O  0.93811261  0.98439066  0.32100359    -0.74200
O2134       O  0.51222304  0.57749867  0.34823746    -0.73800
O2135       O  0.52550364  0.53169344  0.25202829    -0.74400
O2136       O  0.57127700  0.52661473  0.36158760    -0.73800
O2137       O  0.98665003  0.94818144  0.31538978    -0.74500
O2138       O  0.57522163  0.53360596  0.30688316    -0.73900
O2139       O  0.02626215  0.96696127  0.35069478    -0.74400
O2140       O  0.50655511  0.98625956  0.40764260    -0.74300
O2141       O  0.99660869  0.52825817  0.40918443    -0.74100
C2142       C  0.93318961  0.00245000  0.33928716     0.77700
C2143       C  0.00037204  0.50801284  0.23664071     0.78200
C2144       C  0.53124264  0.59460710  0.32644362     0.77200
C2145       C  0.58400709  0.52686603  0.33425982     0.77500
C2146       C  0.00853720  0.94657365  0.33009320     0.78700
C2147       C  0.50119727  0.00413948  0.42487701     0.77700
Zn2148     Zn  0.52926460  0.75470425  0.35725044     1.49700
Zn2149     Zn  0.54045232  0.79267377  0.29320042     1.49400
Zn2150     Zn  0.97565252  0.73168342  0.29921887     1.49100
Zn2151     Zn  0.99268587  0.78628611  0.35120669     1.49500
O2152       O  0.00845605  0.76706363  0.32289141    -1.83500
O2153       O  0.57368863  0.78149877  0.35437877    -0.74200
O2154       O  0.52761772  0.77901281  0.24577671    -0.74000
O2155       O  0.98331849  0.69494040  0.30567071    -0.73500
O2156       O  0.57698104  0.78536628  0.29948248    -0.74200
O2157       O  0.02486787  0.71627239  0.33822512    -0.73800
O2158       O  0.98046912  0.74030557  0.24887380    -0.74400
O2159       O  0.94961767  0.77057388  0.33969007    -0.73800
O2160       O  0.54372484  0.83526286  0.29524941    -0.74500
O2161       O  0.93318933  0.72740959  0.31083914    -0.73900
O2162       O  0.50676776  0.82479036  0.33205383    -0.74400
O2163       O  0.99599625  0.78067400  0.40144057    -0.74300
O2164       O  0.51768267  0.75585328  0.40433838    -0.74100
C2165       C  0.58516280  0.77885475  0.32728484     0.77700
C2166       C  0.50521402  0.75624619  0.23170896     0.78200
C2167       C  0.00592786  0.69436041  0.31986536     0.77200
C2168       C  0.92844515  0.74761607  0.32458846     0.77500
C2169       C  0.52560505  0.84203587  0.31030885     0.78700
C2170       C  0.00631864  0.76575016  0.41709907     0.77700
Zn2171     Zn  0.71348313  0.96128721  0.36168183     1.49700
Zn2172     Zn  0.76071005  0.97459255  0.30114308     1.49400
Zn2173     Zn  0.71185830  0.49102633  0.30054910     1.49100
Zn2174     Zn  0.76768308  0.51610584  0.35574434     1.49500
O2175       O  0.74315718  0.99135707  0.33034998    -1.83500
O2176       O  0.71041518  0.91898334  0.35224482    -0.74200
O2177       O  0.75773040  0.97973288  0.25187412    -0.74000
O2178       O  0.67571750  0.97403659  0.30344751    -0.73500
O2179       O  0.74403875  0.93203060  0.31110316    -0.74200
O2180       O  0.67527098  0.96692261  0.35823465    -0.73800
O2181       O  0.72078204  0.48979764  0.25191414    -0.74400
O2182       O  0.76181797  0.55343160  0.34416264    -0.73800
O2183       O  0.79057185  0.47381551  0.31523889    -0.74500
O2184       O  0.72117203  0.53253667  0.30993816    -0.73900
O2185       O  0.80898111  0.51667162  0.34471490    -0.74400
O2186       O  0.76325999  0.51138556  0.40744647    -0.74300
O2187       O  0.72866245  0.97290367  0.41043028    -0.74100
C2188       C  0.72606018  0.91260617  0.33191230     0.77700
C2189       C  0.74543924  0.99188388  0.23474426     0.78200
C2190       C  0.66427890  0.97289644  0.33202751     0.77200
C2191       C  0.74086206  0.55489670  0.32709261     0.77500
C2192       C  0.81265722  0.49607291  0.33000096     0.78700
C2193       C  0.74991075  0.99713857  0.42407300     0.77700
Zn2194     Zn  0.71560468  0.74563413  0.37230601     1.49700
Zn2195     Zn  0.70475329  0.70392859  0.30895573     1.49400
Zn2196     Zn  0.76805708  0.76796244  0.31525713     1.49100
Zn2197     Zn  0.75460956  0.71649837  0.36867479     1.49500
O2198       O  0.73608162  0.73349901  0.34021731    -1.83500
O2199       O  0.67104412  0.72410454  0.36565495    -0.74200
O2200       O  0.71785339  0.71526782  0.26031814    -0.74000
O2201       O  0.76418225  0.80605501  0.32543996    -0.73500
O2202       O  0.66716853  0.71034718  0.31224196    -0.74200
O2203       O  0.72685209  0.78792343  0.36288151    -0.73800
O2204       O  0.75971034  0.76040494  0.26518632    -0.74400
O2205       O  0.79636072  0.72981446  0.35431639    -0.73800
O2206       O  0.70171911  0.66141655  0.31688823    -0.74500
O2207       O  0.81001705  0.76965502  0.32104224    -0.73900
O2208       O  0.73522817  0.67350969  0.35898375    -0.74400
O2209       O  0.75371901  0.72221534  0.41901195    -0.74300
O2210       O  0.72324023  0.74153933  0.42100904    -0.74100
C2211       C  0.65793788  0.71947346  0.33718138     0.77700
C2212       C  0.73979662  0.73878150  0.24700490     0.78200
C2213       C  0.74498103  0.80903013  0.34356244     0.77200
C2214       C  0.81572745  0.75030197  0.33535232     0.77500
C2215       C  0.71694250  0.65449407  0.33764670     0.78700
C2216       C  0.73903767  0.73188053  0.43582317     0.77700
Zn2217     Zn  0.52946562  0.50372208  0.02845361     1.49700
Zn2218     Zn  0.51524882  0.53784341  0.96791033     1.49400
Zn2219     Zn  0.96579686  0.97119196  0.97648769     1.49100
Zn2220     Zn  0.95907482  0.00430558  0.03802807     1.49500
O2221       O  0.98891211  0.00517321  0.00632975    -1.83500
O2222       O  0.57135933  0.54277349  0.01986931    -0.74200
O2223       O  0.51023766  0.52865083  0.91698526    -0.74000
O2224       O  0.97245630  0.93848356  0.99204875    -0.73500
O2225       O  0.55786372  0.56591951  0.98117389    -0.74200
O2226       O  0.51925510  0.95760254  0.02336429    -0.73800
O2227       O  0.97614361  0.97875394  0.92715413    -0.74400
O2228       O  0.92186207  0.95985187  0.03703254    -0.73800
O2229       O  0.49729668  0.56253991  0.98016375    -0.74500
O2230       O  0.92140340  0.95412511  0.98224111    -0.73900
O2231       O  0.94940401  0.53949375  0.01982186    -0.74400
O2232       O  0.97525872  0.00935929  0.08542773    -0.74300
O2233       O  0.52007526  0.50895315  0.07622720    -0.74100
C2234       C  0.57700570  0.56631287  0.00230666     0.77700
C2235       C  0.99179528  0.00319837  0.91069134     0.78200
C2236       C  0.50831228  0.93934809  0.99817732     0.77200
C2237       C  0.91116345  0.94281630  0.01095949     0.77500
C2238       C  0.96329532  0.56022566  0.99760769     0.78700
C2239       C  0.99808963  0.00935449  0.09897813     0.77700
Zn2240     Zn  0.95556069  0.74983485  0.02222031     1.49700
Zn2241     Zn  0.52715719  0.75074278  0.01809533     1.49400
Zn2242     Zn  0.96870061  0.72119497  0.95969137     1.49100
Zn2243     Zn  0.51081558  0.78913332  0.96560989     1.49500
O2244       O  0.49455526  0.75341103  0.99326228    -1.83500
O2245       O  0.96832449  0.75194539  0.07062413    -0.74200
O2246       O  0.52097992  0.70701231  0.01016286    -0.74000
O2247       O  0.92370725  0.69742438  0.96420975    -0.73500
O2248       O  0.52079509  0.75158594  0.06857211    -0.74200
O2249       O  0.91894006  0.70560808  0.01778253    -0.73800
O2250       O  0.97903010  0.69024982  0.97154287    -0.74400
O2251       O  0.50912497  0.78176716  0.91522150    -0.73800
O2252       O  0.56919394  0.79076336  0.01016519    -0.74500
O2253       O  0.97858970  0.73332870  0.91118698    -0.73900
O2254       O  0.55311420  0.81711560  0.97994160    -0.74400
O2255       O  0.49121726  0.81302373  0.97608270    -0.74300
O2256       O  0.95171843  0.78877124  0.01755060    -0.74100
C2257       C  0.49985389  0.75163770  0.08598374     0.77700
C2258       C  0.49966882  0.68437061  0.99381578     0.78200
C2259       C  0.91051011  0.68775716  0.99223849     0.77200
C2260       C  0.49753710  0.75730866  0.89790572     0.77500
C2261       C  0.57371207  0.81589243  0.99703205     0.78700
C2262       C  0.97073644  0.81370795  0.00310286     0.77700
Zn2263     Zn  0.73233053  0.99759444  0.02177099     1.49700
Zn2264     Zn  0.78090548  0.52562588  0.97166745     1.49400
Zn2265     Zn  0.79091865  0.49557162  0.03287888     1.49100
Zn2266     Zn  0.74940740  0.96125959  0.96825971     1.49500
O2267       O  0.76474393  0.99510913  0.99833225    -1.83500
O2268       O  0.73593714  0.54025141  0.02070019    -0.74200
O2269       O  0.82499027  0.54116437  0.97488549    -0.74000
O2270       O  0.77578163  0.49137085  0.08012542    -0.73500
O2271       O  0.77629306  0.55952061  0.98748194    -0.74200
O2272       O  0.73857494  0.99598447  0.07161924    -0.73800
O2273       O  0.82726257  0.54045205  0.02982711    -0.74400
O2274       O  0.76933188  0.93775423  0.97881101    -0.73800
O2275       O  0.76963840  0.51695864  0.92369778    -0.74500
O2276       O  0.79989837  0.95959674  0.02342384    -0.73900
O2277       O  0.75230397  0.97109005  0.91846412    -0.74400
O2278       O  0.70695710  0.93281988  0.97993665    -0.74300
O2279       O  0.69036778  0.95723273  0.01222363    -0.74100
C2280       C  0.75866861  0.56319055  0.00686802     0.77700
C2281       C  0.83638757  0.55520240  0.00228328     0.78200
C2282       C  0.75916057  0.99575013  0.08994834     0.77200
C2283       C  0.78641940  0.93761312  0.00228184     0.77500
C2284       C  0.76240028  0.99675499  0.90408656     0.78700
C2285       C  0.68614786  0.93279564  0.99737180     0.77700
Zn2286     Zn  0.73238741  0.74905674  0.03133589     1.49700
Zn2287     Zn  0.79553462  0.74879246  0.04391006     1.49400
Zn2288     Zn  0.75011528  0.71040320  0.98177511     1.49100
Zn2289     Zn  0.78873976  0.77747742  0.97872808     1.49500
O2290       O  0.76555063  0.74555641  0.01012937    -1.83500
O2291       O  0.73605246  0.74761379  0.08234237    -0.74200
O2292       O  0.79977946  0.70979319  0.03885043    -0.74000
O2293       O  0.70791287  0.68313324  0.99387623    -0.73500
O2294       O  0.77871752  0.74619806  0.09046304    -0.74200
O2295       O  0.69040256  0.70952311  0.02096464    -0.73800
O2296       O  0.76884667  0.68649935  0.99478883    -0.74400
O2297       O  0.77945160  0.76726162  0.93003833    -0.73800
O2298       O  0.83186128  0.79397360  0.04162407    -0.74500
O2299       O  0.75200093  0.71720962  0.93118881    -0.73900
O2300       O  0.83287891  0.79543959  0.98660045    -0.74400
O2301       O  0.78084955  0.81019721  0.98857452    -0.74300
O2302       O  0.73974020  0.79279299  0.02071127    -0.74100
C2303       C  0.75545716  0.74639141  0.10194244     0.77700
C2304       C  0.78577509  0.68692370  0.01870224     0.78200
C2305       C  0.68656977  0.68435665  0.00869215     0.77200
C2306       C  0.76452545  0.74199510  0.91471473     0.77500
C2307       C  0.84219157  0.80924225  0.01453464     0.78700
C2308       C  0.76179919  0.81442729  0.00453056     0.77700
Zn2309     Zn  0.52858970  0.50410127  0.63241991     1.49700
Zn2310     Zn  0.99856804  0.95867622  0.70185653     1.49400
Zn2311     Zn  0.49468081  0.52259584  0.68697271     1.49100
Zn2312     Zn  0.96555092  0.97241641  0.63914973     1.49500
O2313       O  0.99838405  0.98917154  0.67127534    -1.83500
O2314       O  0.54864573  0.47938216  0.63286094    -0.74200
O2315       O  0.99682687  0.97068974  0.75082150    -0.74000
O2316       O  0.53739753  0.56159258  0.68232128    -0.73500
O2317       O  0.54331054  0.96602132  0.68851653    -0.74200
O2318       O  0.55992190  0.54284597  0.65032493    -0.73800
O2319       O  0.49272565  0.51439105  0.73712978    -0.74400
O2320       O  0.93855110  0.98827102  0.64852422    -0.73800
O2321       O  0.95753195  0.91765953  0.69320912    -0.74500
O2322       O  0.95929154  0.52468959  0.67572577    -0.73900
O2323       O  0.93943573  0.92889612  0.64723223    -0.74400
O2324       O  0.97619433  0.98143801  0.59017573    -0.74300
O2325       O  0.52005006  0.50912900  0.58474049    -0.74100
C2326       C  0.56002920  0.97476212  0.66219046     0.77700
C2327       C  0.99743802  0.99381721  0.76446969     0.78200
C2328       C  0.56141924  0.56354140  0.66941157     0.77200
C2329       C  0.93623606  0.50694650  0.65719609     0.77500
C2330       C  0.93662465  0.91068263  0.67070727     0.78700
C2331       C  0.00188626  0.99776178  0.57657181     0.77700
Zn2332     Zn  0.00003900  0.72536491  0.68838289     1.49700
Zn2333     Zn  0.50430200  0.79218557  0.68584816     1.49400
Zn2334     Zn  0.53608688  0.77364981  0.62766314     1.49100
Zn2335     Zn  0.96897584  0.73643536  0.62571219     1.49500
O2336       O  0.00180024  0.75589273  0.65746118    -1.83500
O2337       O  0.99661029  0.73704707  0.73591522    -0.74200
O2338       O  0.54439548  0.83266289  0.67510155    -0.74000
O2339       O  0.56371703  0.75921910  0.64032831    -0.73500
O2340       O  0.50680075  0.78358137  0.73559055    -0.74200
O2341       O  0.54339943  0.72762591  0.68326067    -0.73800
O2342       O  0.56283852  0.81712814  0.63379686    -0.74400
O2343       O  0.97871298  0.75082716  0.57790052    -0.73800
O2344       O  0.95789654  0.78321493  0.67538800    -0.74500
O2345       O  0.52538409  0.76675338  0.57906938    -0.73900
O2346       O  0.93614113  0.74169205  0.64287152    -0.74400
O2347       O  0.95133753  0.69174890  0.62589954    -0.74300
O2348       O  0.95866517  0.68660228  0.67992433    -0.74100
C2349       C  0.99825963  0.76026713  0.75028750     0.77700
C2350       C  0.56544964  0.83754841  0.65406949     0.78200
C2351       C  0.56608708  0.74389365  0.66415319     0.77200
C2352       C  0.00272317  0.75622974  0.56246955     0.77500
C2353       C  0.93428950  0.76058045  0.66218326     0.78700
C2354       C  0.94169540  0.67779180  0.65353132     0.77700
Zn2355     Zn  0.78849213  0.53040940  0.69779418     1.49700
Zn2356     Zn  0.75246152  0.54063847  0.63593037     1.49400
Zn2357     Zn  0.75477423  0.97848512  0.63941490     1.49100
Zn2358     Zn  0.72282029  0.99792444  0.69654324     1.49500
O2359       O  0.75568768  0.01236247  0.66485794    -1.83500
O2360       O  0.81181877  0.57429165  0.69077005    -0.74200
O2361       O  0.75384949  0.52814697  0.58684077    -0.74000
O2362       O  0.79564247  0.97824789  0.64991318    -0.73500
O2363       O  0.79303074  0.58202331  0.64304933    -0.74200
O2364       O  0.81722174  0.51720306  0.68535784    -0.73800
O2365       O  0.75513384  0.98663567  0.58881560    -0.74400
O2366       O  0.69145720  0.95777915  0.68252456    -0.73800
O2367       O  0.70872989  0.53547582  0.64203064    -0.74500
O2368       O  0.71221526  0.93922224  0.64742515    -0.73900
O2369       O  0.70260860  0.02254427  0.69542560    -0.74400
O2370       O  0.73243048  0.99356846  0.74432521    -0.74300
O2371       O  0.78035574  0.52121681  0.74710670    -0.74100
C2372       C  0.81407868  0.59077295  0.66568590     0.77700
C2373       C  0.75473882  0.00752455  0.57116820     0.78200
C2374       C  0.81867628  0.99692390  0.66802025     0.77200
C2375       C  0.68935810  0.93648697  0.66406655     0.77500
C2376       C  0.69179195  0.52792734  0.66819127     0.78700
C2377       C  0.75763433  0.00747080  0.75995705     0.77700
Zn2378     Zn  0.77735128  0.76206419  0.64451558     1.49700
Zn2379     Zn  0.71039820  0.72715902  0.64836788     1.49400
Zn2380     Zn  0.74764398  0.71013855  0.70119334     1.49100
Zn2381     Zn  0.74911883  0.77491698  0.70715970     1.49500
O2382       O  0.74547740  0.74289615  0.67664893    -1.83500
O2383       O  0.76689303  0.74866356  0.59642227    -0.74200
O2384       O  0.68249532  0.68582480  0.66230514    -0.74000
O2385       O  0.78894452  0.71279325  0.69123648    -0.73500
O2386       O  0.71701129  0.72748496  0.59836760    -0.74200
O2387       O  0.80919168  0.75438852  0.65928827    -0.73800
O2388       O  0.70724776  0.66897174  0.69426566    -0.74400
O2389       O  0.75034445  0.76248713  0.75518456    -0.73800
O2390       O  0.68720533  0.74702763  0.65845629    -0.74500
O2391       O  0.74996266  0.71860789  0.75136272    -0.73900
O2392       O  0.70991139  0.77858637  0.70190146    -0.74400
O2393       O  0.79254808  0.81224095  0.70044496    -0.74300
O2394       O  0.79697847  0.80682933  0.64610844    -0.74100
C2395       C  0.74117449  0.73624843  0.58161047     0.77700
C2396       C  0.68282948  0.66523362  0.67999325     0.78200
C2397       C  0.81176997  0.73487111  0.67670711     0.77200
C2398       C  0.75112525  0.74017011  0.76898809     0.77500
C2399       C  0.68751802  0.76471184  0.68114079     0.78700
C2400       C  0.80849086  0.82059123  0.67368343     0.77700
C2401       C  0.90877688  0.65480266  0.65607502    -0.04900
C2402       C  0.89429022  0.65102330  0.68712145    -0.32300
C2403       C  0.86264484  0.63311864  0.68979269     0.36900
C2404       C  0.84451168  0.61803085  0.66124354    -0.05200
C2405       C  0.85876186  0.62269913  0.62992462    -0.32200
C2406       C  0.89052037  0.64075908  0.62719228     0.41700
H2407       H  0.90747588  0.66246162  0.70948311     0.17200
O2408       O  0.84971821  0.62936897  0.72088332    -0.59700
H2409       H  0.84551433  0.61061583  0.60783669     0.17200
O2410       O  0.90347522  0.64402290  0.59620033    -0.59800
H2411       H  0.90765981  0.62693983  0.59437788     0.44200
H2412       H  0.84296614  0.64464488  0.72191495     0.44200
C2413       C  0.59578918  0.86555921  0.65525832    -0.04900
C2414       C  0.60830367  0.87873439  0.68659366    -0.32300
C2415       C  0.63930670  0.90010047  0.68999404     0.36900
C2416       C  0.65858742  0.90927747  0.66166709    -0.05200
C2417       C  0.64613716  0.89638869  0.63022435    -0.32200
C2418       C  0.61510575  0.87464173  0.62687122     0.36900
H2419       H  0.59434463  0.87136763  0.70891448     0.17200
O2420       O  0.65060327  0.91200792  0.72132914    -0.59700
H2421       H  0.66023024  0.90387105  0.60801026     0.17200
O2422       O  0.60369921  0.86269409  0.59556396    -0.59800
H2423       H  0.61090947  0.84811170  0.59099942     0.44200
H2424       H  0.65957968  0.89988803  0.73014938     0.44200
C2425       C  0.90340700  0.75420605  0.67029071    -0.04900
C2426       C  0.87951649  0.72360640  0.67051795    -0.32300
C2427       C  0.84935213  0.71636998  0.67523551     0.36900
C2428       C  0.84283225  0.73990721  0.67971721    -0.05200
C2429       C  0.86691847  0.77029899  0.68177028    -0.32200
C2430       C  0.89701008  0.77754241  0.67707313     0.36900
H2431       H  0.88413921  0.70519640  0.66617822     0.17200
O2432       O  0.82644823  0.68655314  0.67368392    -0.59700
H2433       H  0.86220616  0.78873814  0.68547731     0.17200
O2434       O  0.91966831  0.80748948  0.67754963    -0.59800
H2435       H  0.92061643  0.81476240  0.65416047     0.44200
H2436       H  0.82275699  0.68158390  0.64933258     0.44200
C2437       C  0.59743818  0.74896428  0.67052809    -0.04900
C2438       C  0.62093760  0.76908888  0.64893598    -0.32300
C2439       C  0.65132307  0.77773313  0.65503021     0.36900
C2440       C  0.65938544  0.76630190  0.68297740    -0.05200
C2441       C  0.63637436  0.74670407  0.70516527    -0.32200
C2442       C  0.60562533  0.73810036  0.69922432     0.36900
H2443       H  0.61592314  0.77831558  0.62675459     0.17200
O2444       O  0.67283188  0.79562073  0.63194811    -0.59700
H2445       H  0.64199237  0.73648545  0.72597024     0.17200
O2446       O  0.58393934  0.71892724  0.72138911    -0.59800
H2447       H  0.57817957  0.69809630  0.71370662     0.44200
H2448       H  0.68228055  0.81662344  0.64115680     0.44200
C2449       C  0.84173073  0.84378442  0.67428340    -0.04900
C2450       C  0.85778389  0.85090013  0.64379633    -0.32300
C2451       C  0.88935012  0.86987236  0.64292865     0.36900
C2452       C  0.90612757  0.88288573  0.67282486    -0.05200
C2453       C  0.89052123  0.87498702  0.70356576    -0.32200
C2454       C  0.85866246  0.85567745  0.70447565     0.36900
H2455       H  0.84585352  0.84170343  0.62014558     0.17200
O2456       O  0.90347280  0.87684413  0.61227501    -0.59700
H2457       H  0.90274948  0.88525945  0.72679290     0.17200
O2458       O  0.84446668  0.84861950  0.73503679    -0.59800
H2459       H  0.83934144  0.86481152  0.73934811     0.44200
H2460       H  0.91130755  0.86255755  0.60955964     0.44200
C2461       C  0.59250623  0.58917079  0.67685743    -0.04900
C2462       C  0.61762838  0.58483854  0.67125168    -0.32300
C2463       C  0.64763564  0.60877371  0.67498029     0.36900
C2464       C  0.65298077  0.63764139  0.68438052    -0.05200
C2465       C  0.62807357  0.64160571  0.69199480    -0.32200
C2466       C  0.59805786  0.61769999  0.68835498     0.36900
H2467       H  0.61410804  0.56293106  0.66295209     0.17200
O2468       O  0.67131987  0.60442955  0.66636157    -0.59700
H2469       H  0.63194494  0.66391392  0.69918084     0.17200
O2470       O  0.57452642  0.62293741  0.69461997    -0.59800
H2471       H  0.57074347  0.63039687  0.67302033     0.44200
H2472       H  0.67311159  0.59234766  0.68498938     0.44200
C2473       C  0.90722005  0.50755397  0.65805622    -0.04900
C2474       C  0.89873213  0.51595577  0.68782009    -0.32300
C2475       C  0.86912178  0.51083373  0.69183699     0.36900
C2476       C  0.84823894  0.99737223  0.66822104    -0.05200
C2477       C  0.86021664  0.99374347  0.63811610    -0.32200
C2478       C  0.89039777  0.99983331  0.63673244     0.36900
H2479       H  0.91470208  0.52535581  0.70871831     0.17200
O2480       O  0.86192490  0.51908490  0.72175835    -0.59700
H2481       H  0.84651984  0.98722050  0.61527022     0.17200
O2482       O  0.90113445  0.99603483  0.60661328    -0.59800
H2483       H  0.91045885  0.01625688  0.59561866     0.44200
H2484       H  0.85537376  0.50122296  0.73668056     0.44200
C2485       C  0.59355908  0.98572003  0.66379755    -0.04900
C2486       C  0.61116610  0.99736882  0.63441293    -0.32300
C2487       C  0.64315663  0.01202190  0.63533915     0.36900
C2488       C  0.65844436  0.51806021  0.66611964    -0.05200
C2489       C  0.64041776  0.50637245  0.69522660    -0.32200
C2490       C  0.60843314  0.49191307  0.69386526     0.36900
H2491       H  0.60013928  0.99549370  0.61033392     0.17200
O2492       O  0.65881224  0.02235024  0.60582487    -0.59700
H2493       H  0.65108077  0.50777891  0.71942799     0.17200
O2494       O  0.59244117  0.48122839  0.72312078    -0.59800
H2495       H  0.59237198  0.49903043  0.73338301     0.44200
H2496       H  0.65911580  0.00452858  0.59595695     0.44200
C2497       C  0.76154983  0.74163241  0.87736952    -0.04900
C2498       C  0.75055515  0.71415050  0.85941114    -0.32300
C2499       C  0.74706884  0.71318638  0.82425654     0.36900
C2500       C  0.75429566  0.73997954  0.80626176    -0.05200
C2501       C  0.76536050  0.76742476  0.82424043    -0.32200
C2502       C  0.76931258  0.76851495  0.85921828     0.36900
H2503       H  0.74466806  0.69323785  0.87262057     0.17200
O2504       O  0.73647422  0.68586366  0.80787821    -0.59700
H2505       H  0.77138959  0.78840876  0.81110114     0.17200
O2506       O  0.78005847  0.79598162  0.87536978    -0.59800
H2507       H  0.80252424  0.80600795  0.87403610     0.44200
H2508       H  0.71400466  0.67643051  0.80766862     0.44200
C2509       C  0.78671240  0.90891811  0.00603251    -0.04900
C2510       C  0.79029431  0.89555790  0.97691689    -0.32300
C2511       C  0.78113826  0.86463952  0.97595897     0.36900
C2512       C  0.76757610  0.84607711  0.00440127    -0.05200
C2513       C  0.76450676  0.85951233  0.03389037    -0.32200
C2514       C  0.77395924  0.89074488  0.03481700     0.36900
H2515       H  0.79888991  0.90890625  0.95417247     0.17200
O2516       O  0.78428775  0.85242412  0.94645132    -0.59700
H2517       H  0.75503759  0.84588614  0.05627190     0.17200
O2518       O  0.76916007  0.90294746  0.06334017    -0.59800
H2519       H  0.74815298  0.89941012  0.06091384     0.44200
H2520       H  0.80619006  0.85873385  0.94535903     0.44200
C2521       C  0.76688503  0.59542081  0.01383553    -0.04900
C2522       C  0.79453541  0.61925977  0.00098667    -0.32300
C2523       C  0.80309389  0.64993774  0.00559390     0.36900
C2524       C  0.78461586  0.65763173  0.02425999    -0.05200
C2525       C  0.75787623  0.63409918  0.03865047    -0.32200
C2526       C  0.74887529  0.60328037  0.03349948     0.36900
H2527       H  0.80935244  0.61426418  0.98621264     0.17200
O2528       O  0.82875022  0.67216974  0.99030002    -0.59700
H2529       H  0.74265898  0.63962476  0.05189473     0.17200
O2530       O  0.72200736  0.58122258  0.04685697    -0.59800
H2531       H  0.70622796  0.57761865  0.02963361     0.44200
H2532       H  0.82244368  0.67299814  0.96678513     0.44200
C2533       C  0.75893142  0.00358684  0.79662939    -0.04900
C2534       C  0.78069389  0.52239981  0.81865719    -0.32300
C2535       C  0.78140816  0.51936139  0.85350523     0.36900
C2536       C  0.76162311  0.99867760  0.86710225    -0.05200
C2537       C  0.73828297  0.97497532  0.84829047    -0.32200
C2538       C  0.73675817  0.97730274  0.81327637     0.36900
H2539       H  0.79924450  0.54213017  0.80682009     0.17200
O2540       O  0.80590030  0.54119239  0.87138666    -0.59700
H2541       H  0.72088788  0.95485929  0.86079991     0.17200
O2542       O  0.71353989  0.95377036  0.79565934    -0.59800
H2543       H  0.72167909  0.94038854  0.78893370     0.44200
H2544       H  0.82036218  0.53345872  0.87304638     0.44200
C2545       C  0.85631302  0.58925192  0.00118288    -0.04900
C2546       C  0.86276492  0.60363364  0.96956743    -0.32300
C2547       C  0.87794804  0.63537925  0.96652105     0.36900
C2548       C  0.88815911  0.65431013  0.99542262    -0.05200
C2549       C  0.88123839  0.64009611  0.02721736    -0.32200
C2550       C  0.86541403  0.60801142  0.03023874     0.36900
H2551       H  0.85551852  0.59018510  0.94662864     0.17200
O2552       O  0.88318577  0.64756976  0.93478902    -0.59700
H2553       H  0.88893445  0.65385486  0.04991203     0.17200
O2554       O  0.85865131  0.59538680  0.06172880    -0.59800
H2555       H  0.87652766  0.59358891  0.06865843     0.44200
H2556       H  0.86560381  0.65044500  0.92965933     0.44200
C2557       C  0.60275573  0.84522904  0.00166770    -0.04900
C2558       C  0.63081844  0.84673338  0.99803175    -0.32300
C2559       C  0.65788401  0.87501823  0.99720238     0.36900
C2560       C  0.65743152  0.90276005  0.00071002    -0.05200
C2561       C  0.62946663  0.90105631  0.00665072    -0.32200
C2562       C  0.60232954  0.87273026  0.00677420     0.36900
H2563       H  0.63172955  0.82601773  0.99439841     0.17200
O2564       O  0.68483069  0.87518874  0.99344245    -0.59700
H2565       H  0.62845167  0.92172884  0.01011323     0.17200
O2566       O  0.57536453  0.87208539  0.01240169    -0.59800
H2567       H  0.57004250  0.87814816  0.99075515     0.44200
H2568       H  0.68599072  0.87158480  0.96907768     0.44200
C2569       C  0.99541276  0.76023421  0.78765038    -0.04900
C2570       C  0.00680583  0.78774138  0.80570035    -0.32300
C2571       C  0.00492553  0.78794959  0.84103253     0.36900
C2572       C  0.49980813  0.75861879  0.86042399    -0.05200
C2573       C  0.49160309  0.73184550  0.84208269    -0.32200
C2574       C  0.49288985  0.73198652  0.80684221     0.36900
H2575       H  0.01769102  0.80925505  0.79245634     0.17200
O2576       O  0.01715774  0.81540515  0.85751235    -0.59700
H2577       H  0.48407001  0.71048614  0.85507511     0.17200
O2578       O  0.48393002  0.70497395  0.79038845    -0.59800
H2579       H  0.50219756  0.70262964  0.79028162     0.44200
H2580       H  0.00072282  0.82057887  0.85770338     0.44200
C2581       C  0.89061100  0.90885484  0.01335361    -0.04900
C2582       C  0.88330088  0.89156994  0.98351176    -0.32300
C2583       C  0.86927897  0.85976586  0.98386087     0.36900
C2584       C  0.86112024  0.84352937  0.01460451    -0.05200
C2585       C  0.86759252  0.86063739  0.04466077    -0.32200
C2586       C  0.88220893  0.89286388  0.04423345     0.36900
H2587       H  0.88939912  0.90278886  0.95928991     0.17200
O2588       O  0.86335425  0.84487077  0.95350506    -0.59700
H2589       H  0.86104259  0.84902504  0.06863222     0.17200
O2590       O  0.88868495  0.90836292  0.07421934    -0.59800
H2591       H  0.87101099  0.91120948  0.07839640     0.44200
H2592       H  0.88177801  0.84349373  0.94867889     0.44200
C2593       C  0.60508338  0.59617490  0.00765363    -0.04900
C2594       C  0.60290886  0.62293578  0.00705138    -0.32300
C2595       C  0.62890139  0.65200694  0.00940540     0.36900
C2596       C  0.65777527  0.65475947  0.01184099    -0.05200
C2597       C  0.65971157  0.62791568  0.01423206    -0.32200
C2598       C  0.63374288  0.59891161  0.01230881     0.36900
H2599       H  0.58086495  0.62129760  0.00427728     0.17200
O2600       O  0.62583579  0.67738324  0.00809999    -0.59700
H2601       H  0.68170783  0.62940469  0.01673899     0.17200
O2602       O  0.63680840  0.57353559  0.01362583    -0.59800
H2603       H  0.64069140  0.56996698  0.99009722     0.44200
H2604       H  0.62651818  0.68226900  0.98382355     0.44200
C2605       C  0.97380929  0.84339060  0.01195784    -0.04900
C2606       C  0.00344766  0.86774617  0.01847221    -0.32300
C2607       C  0.00967878  0.89791766  0.01961790     0.36900
C2608       C  0.49778798  0.90606534  0.00092161    -0.05200
C2609       C  0.47899090  0.88636349  0.97501496    -0.32200
C2610       C  0.46758279  0.85490066  0.97637983     0.36900
H2611       H  0.02224113  0.86342297  0.02104152     0.17200
O2612       O  0.03912619  0.92100141  0.02402919    -0.59700
H2613       H  0.47326719  0.89532474  0.95311305     0.17200
O2614       O  0.45130530  0.83703272  0.94945811    -0.59800
H2615       H  0.43001960  0.83201958  0.95332135     0.44200
H2616       H  0.04802741  0.92541601  0.00115575     0.44200
C2617       C  0.96419929  0.58980991  0.99840412    -0.04900
C2618       C  0.50499536  0.61431291  0.01928970    -0.32300
C2619       C  0.51246293  0.64489844  0.01640931     0.36900
C2620       C  0.49303087  0.65231476  0.99842715    -0.05200
C2621       C  0.97830623  0.63599442  0.96681744    -0.32200
C2622       C  0.96662183  0.60461245  0.96762492     0.36900
H2623       H  0.52121531  0.60924095  0.03133223     0.17200
O2624       O  0.53953088  0.66726939  0.02965905    -0.59700
H2625       H  0.97994629  0.64661257  0.94262956     0.17200
O2626       O  0.95816454  0.58846794  0.93791360    -0.59800
H2627       H  0.97745342  0.59398505  0.92625426     0.44200
H2628       H  0.53514246  0.66938306  0.05349348     0.44200
C2629       C  0.99442558  0.00136581  0.87328562    -0.04900
C2630       C  0.98044193  0.97264104  0.85728075    -0.32300
C2631       C  0.98163657  0.96982278  0.82221814     0.36900
C2632       C  0.99660961  0.99598958  0.80194471    -0.05200
C2633       C  0.50355066  0.52447365  0.80812778    -0.32200
C2634       C  0.50453561  0.52724099  0.84342023     0.36900
H2635       H  0.96823706  0.95203800  0.87195115     0.17200
O2636       O  0.96680218  0.94133072  0.80792880    -0.59700
H2637       H  0.51108341  0.54477842  0.79305661     0.17200
O2638       O  0.51496141  0.55548435  0.85749115    -0.59800
H2639       H  0.49713662  0.55858344  0.85749885     0.44200
H2640       H  0.98106948  0.93341057  0.81032343     0.44200
C2641       C  0.73953589  0.73145242  0.47310374    -0.04900
C2642       C  0.71410135  0.72799636  0.49063273    -0.32300
C2643       C  0.71381551  0.72827381  0.52583390     0.36900
C2644       C  0.73964079  0.73285764  0.54438902    -0.05200
C2645       C  0.76494466  0.73583420  0.52681697    -0.32200
C2646       C  0.76488575  0.73478115  0.49153526     0.36900
H2647       H  0.69421377  0.72504942  0.47695737     0.17200
O2648       O  0.68863990  0.72545641  0.54167504    -0.59700
H2649       H  0.78503996  0.73928784  0.54043143     0.17200
O2650       O  0.79033972  0.73866739  0.47536924    -0.59800
H2651       H  0.78825363  0.71814543  0.47473765     0.44200
H2652       H  0.67470682  0.70320800  0.54394656     0.44200
C2653       C  0.74292201  0.74105407  0.20970658    -0.04900
C2654       C  0.77194238  0.75901135  0.19584439    -0.32300
C2655       C  0.77615263  0.76104730  0.16094886     0.36900
C2656       C  0.75110105  0.74527022  0.13891582    -0.05200
C2657       C  0.72189684  0.72802135  0.15256968    -0.32200
C2658       C  0.71769983  0.72563755  0.18762050     0.36900
H2659       H  0.79167567  0.77120238  0.21215672     0.17200
O2660       O  0.80494561  0.77870266  0.14863407    -0.59700
H2661       H  0.70232969  0.71581782  0.13602973     0.17200
O2662       O  0.68887542  0.70818591  0.19992099    -0.59800
H2663       H  0.68036502  0.72203262  0.20099382     0.44200
H2664       H  0.80748967  0.79930697  0.14597655     0.44200
C2665       C  0.75462633  0.00544481  0.53343259    -0.04900
C2666       C  0.74521591  0.97714785  0.51772407    -0.32300
C2667       C  0.74391884  0.97415665  0.48241476     0.36900
C2668       C  0.75246276  0.99976993  0.46168438    -0.05200
C2669       C  0.76418765  0.52330288  0.47913768    -0.32200
C2670       C  0.76650755  0.52715581  0.51442124     0.36900
H2671       H  0.73830401  0.95699424  0.53287496     0.17200
O2672       O  0.73425523  0.94599339  0.46847665    -0.59700
H2673       H  0.77473110  0.54333219  0.46333607     0.17200
O2674       O  0.78258400  0.55603685  0.52756821    -0.59800
H2675       H  0.80352078  0.55970357  0.53123618     0.44200
H2676       H  0.75271857  0.94402334  0.46734286     0.44200
C2677       C  0.72705872  0.88371631  0.33345873    -0.04900
C2678       C  0.74512346  0.87924696  0.30973741    -0.32300
C2679       C  0.75220896  0.85603912  0.31331487     0.36900
C2680       C  0.74102294  0.83615588  0.34086456    -0.05200
C2681       C  0.72204483  0.83985201  0.36396855    -0.32200
C2682       C  0.71516516  0.86333839  0.36052534     0.36900
H2683       H  0.75468985  0.89438274  0.28844903     0.17200
O2684       O  0.77006688  0.85310617  0.28958724    -0.59700
H2685       H  0.71239330  0.82444312  0.38501909     0.17200
O2686       O  0.69710836  0.86624822  0.38397273    -0.59800
H2687       H  0.71109753  0.87826239  0.40266235     0.44200
H2688       H  0.75584971  0.84060369  0.27131586     0.44200
C2689       C  0.73650141  0.58165987  0.32886689    -0.04900
C2690       C  0.73687898  0.59408677  0.36038302    -0.32300
C2691       C  0.72742157  0.61558550  0.36396544     0.36900
C2692       C  0.71769249  0.62560191  0.33556927    -0.05200
C2693       C  0.71675083  0.61269785  0.30403157    -0.32200
C2694       C  0.72573053  0.59069915  0.30060892     0.36900
H2695       H  0.74360928  0.58638556  0.38260725     0.17200
O2696       O  0.72769051  0.62672712  0.39555027    -0.59700
H2697       H  0.71040888  0.62065256  0.28172802     0.17200
O2698       O  0.72494604  0.57890991  0.26927766    -0.59800
H2699       H  0.70322934  0.56368536  0.26499184     0.44200
H2700       H  0.74948713  0.64060182  0.40121695     0.44200
C2701       C  0.75619417  0.99521486  0.12697098    -0.04900
C2702       C  0.72247669  0.48602919  0.14444817    -0.32300
C2703       C  0.71805630  0.48359075  0.17928696     0.36900
C2704       C  0.74912268  0.99377883  0.19763993    -0.05200
C2705       C  0.76594050  0.98181993  0.18260087    -0.32200
C2706       C  0.76977175  0.98271674  0.14776387     0.36900
H2707       H  0.70577757  0.48757010  0.12864847     0.17200
O2708       O  0.69257347  0.48264165  0.19206354    -0.59700
H2709       H  0.77618290  0.97151451  0.19783842     0.17200
O2710       O  0.78573859  0.97007637  0.13425224    -0.59800
H2711       H  0.80746838  0.98586835  0.13689955     0.44200
H2712       H  0.69761535  0.50420765  0.19351513     0.44200
C2713       C  0.00489744  0.76347704  0.45422238    -0.04900
C2714       C  0.52867770  0.77095727  0.47305472    -0.32300
C2715       C  0.52845709  0.76950500  0.50803997     0.36900
C2716       C  0.00363765  0.75848494  0.52521200    -0.05200
C2717       C  0.98132365  0.76201091  0.50775102    -0.32200
C2718       C  0.98188368  0.76459645  0.47260208     0.36900
H2719       H  0.54820621  0.77297298  0.45986949     0.17200
O2720       O  0.55313570  0.77087379  0.52420211    -0.59700
H2721       H  0.96342141  0.76296882  0.52136681     0.17200
O2722       O  0.95965239  0.76787960  0.45653035    -0.59800
H2723       H  0.94330253  0.74685533  0.45115821     0.44200
H2724       H  0.54904311  0.74960751  0.52460661     0.44200
C2725       C  0.89857682  0.74645540  0.32279278    -0.04900
C2726       C  0.89841530  0.77390355  0.31722243    -0.32300
C2727       C  0.87167291  0.77551320  0.31992853     0.36900
C2728       C  0.84441306  0.74960995  0.32938397    -0.05200
C2729       C  0.84436246  0.72183590  0.33368074    -0.32200
C2730       C  0.87103485  0.72011770  0.33030049     0.36900
H2731       H  0.91943147  0.79451852  0.31133315     0.17200
O2732       O  0.87290333  0.80288712  0.31506514    -0.59700
H2733       H  0.82353742  0.70126803  0.34017365     0.17200
O2734       O  0.87012786  0.69294895  0.33574853    -0.59800
H2735       H  0.87110694  0.69128378  0.36054795     0.44200
H2736       H  0.86966039  0.80380850  0.29051171     0.44200
C2737       C  0.60396038  0.76355648  0.32848969    -0.04900
C2738       C  0.60610455  0.75071664  0.35913692    -0.32300
C2739       C  0.62110615  0.73389010  0.36153881     0.36900
C2740       C  0.63486643  0.72944408  0.33299505    -0.05200
C2741       C  0.63172574  0.74113186  0.30194600    -0.32200
C2742       C  0.61625784  0.75776150  0.29948618     0.36900
H2743       H  0.59585181  0.75344542  0.38169837     0.17200
O2744       O  0.62220789  0.72186537  0.39216415    -0.59700
H2745       H  0.64246256  0.73858018  0.27970819     0.17200
O2746       O  0.61400734  0.76881193  0.26872358    -0.59800
H2747       H  0.59566870  0.75189656  0.25782473     0.44200
H2748       H  0.63720561  0.73940303  0.40592768     0.44200
C2749       C  0.50427892  0.75397919  0.19439919    -0.04900
C2750       C  0.97031892  0.74711760  0.17823407    -0.32300
C2751       C  0.96751685  0.74553658  0.14302018     0.36900
C2752       C  0.50137311  0.75127214  0.12318942    -0.05200
C2753       C  0.52947362  0.76773341  0.13990506    -0.32200
C2754       C  0.53109151  0.76935573  0.17513656     0.36900
H2755       H  0.95003257  0.73901187  0.19327553     0.17200
O2756       O  0.93909808  0.73370061  0.12873360    -0.59700
H2757       H  0.55020326  0.78007449  0.12559549     0.17200
O2758       O  0.55904008  0.78628234  0.19037601    -0.59800
H2759       H  0.56625210  0.77169015  0.19495847     0.44200
H2760       H  0.93113137  0.71144291  0.12723719     0.44200
C2761       C  0.00842019  0.01215179  0.46962373    -0.04900
C2762       C  0.98444796  0.01191585  0.48726302    -0.32300
C2763       C  0.98175336  0.00693776  0.52213608     0.36900
C2764       C  0.00380244  0.00314569  0.53993464    -0.05200
C2765       C  0.52338175  0.50555049  0.51425206    -0.32200
C2766       C  0.52540453  0.50901446  0.47941753     0.36900
H2767       H  0.96740603  0.01490062  0.47389592     0.17200
O2768       O  0.95814664  0.00688713  0.53873343    -0.59700
H2769       H  0.54259907  0.50708156  0.52813249     0.17200
O2770       O  0.55187123  0.51509571  0.46383251    -0.59800
H2771       H  0.55068033  0.49505344  0.46134193     0.44200
H2772       H  0.94070727  0.98591256  0.53598178     0.44200
C2773       C  0.01574499  0.92191168  0.32301774    -0.04900
C2774       C  0.53846398  0.92140570  0.31242424    -0.32300
C2775       C  0.54576593  0.89825079  0.30979284     0.36900
C2776       C  0.52290881  0.86875849  0.30145349    -0.05200
C2777       C  0.00757888  0.87600234  0.29414443    -0.32200
C2778       C  0.99969267  0.89864586  0.29910490     0.36900
H2779       H  0.55617160  0.94375795  0.32050279     0.17200
O2780       O  0.57453049  0.90410651  0.31796927    -0.59700
H2781       H  0.99362294  0.85709031  0.27742172     0.17200
O2782       O  0.97595603  0.89735932  0.28095252    -0.59800
H2783       H  0.95753865  0.88423529  0.29429229     0.44200
H2784       H  0.57531039  0.90402761  0.34292954     0.44200
C2785       C  0.01179878  0.66854050  0.31528525    -0.04900
C2786       C  0.53262515  0.66613136  0.35059715    -0.32300
C2787       C  0.54181404  0.64437385  0.34926585     0.36900
C2788       C  0.53306548  0.62418769  0.32188785    -0.05200
C2789       C  0.99509655  0.61525590  0.30461343    -0.32200
C2790       C  0.98904403  0.63940534  0.30478315     0.36900
H2791       H  0.53956328  0.68116907  0.37229339     0.17200
O2792       O  0.55842724  0.64218662  0.37549030    -0.59700
H2793       H  0.97673378  0.59256668  0.29846715     0.17200
O2794       O  0.96028234  0.63372411  0.29698536    -0.59800
H2795       H  0.95955478  0.63436741  0.27203933     0.44200
H2796       H  0.54333015  0.63018281  0.39300364     0.44200
C2797       C  0.84234588  0.49623083  0.33029540    -0.04900
C2798       C  0.86568244  0.51499001  0.35271508    -0.32300
C2799       C  0.89272379  0.51377369  0.35490628     0.36900
C2800       C  0.90433137  0.00377206  0.33713227    -0.05200
C2801       C  0.88759231  0.99644345  0.30691443    -0.32200
C2802       C  0.86299291  0.00170856  0.30289399     0.36900
H2803       H  0.86293019  0.53056971  0.36899916     0.17200
O2804       O  0.91457775  0.53287544  0.37751656    -0.59700
H2805       H  0.89403744  0.98730198  0.28591808     0.17200
O2806       O  0.84783850  0.99476409  0.27249067    -0.59800
H2807       H  0.83513205  0.97223140  0.27199212     0.44200
H2808       H  0.92562243  0.55283314  0.36598099     0.44200
C2809       C  0.60492318  0.51399980  0.33407739    -0.04900
C2810       C  0.60958024  0.00066851  0.30641215    -0.32300
C2811       C  0.62614450  0.98527230  0.30539561     0.36900
C2812       C  0.64129297  0.98316832  0.33451955    -0.05200
C2813       C  0.63424068  0.49476249  0.36447174    -0.32200
C2814       C  0.61928579  0.51189090  0.36390262     0.36900
H2815       H  0.59771440  0.00117327  0.28380516     0.17200
O2816       O  0.62751434  0.97250863  0.27549152    -0.59700
H2817       H  0.64589465  0.49448338  0.38735319     0.17200
O2818       O  0.61886771  0.52648141  0.39279256    -0.59800
H2819       H  0.63715952  0.54704268  0.39160176     0.44200
H2820       H  0.60847456  0.95251733  0.27428990     0.44200
C2821       C  0.00589307  0.01535617  0.20748856    -0.04900
C2822       C  0.52619337  0.52651377  0.18144918    -0.32300
C2823       C  0.52571728  0.52557304  0.14620914     0.36900
C2824       C  0.00154620  0.01191726  0.13621472    -0.05200
C2825       C  0.97542261  0.00163305  0.15596732    -0.32200
C2826       C  0.97735329  0.00290634  0.19115408     0.36900
H2827       H  0.54802067  0.53865185  0.19428547     0.17200
O2828       O  0.55273973  0.54087227  0.12938755    -0.59700
H2829       H  0.95318163  0.99205615  0.14410079     0.17200
O2830       O  0.95120808  0.99284730  0.20930229    -0.59800
H2831       H  0.94193061  0.97038374  0.21014902     0.44200
H2832       H  0.56150560  0.52722210  0.13010451     0.44200
loop_ 
_geom_bond_atom_site_label_1 
_geom_bond_atom_site_label_2 
_geom_bond_distance 
_geom_bond_site_symmetry_2 
_ccdc_geom_bond_type 
Zn1          O17   2.021       .  S
Zn1         O714   1.965       .  S
Zn1        O1426   1.956       .  S
Zn1        O1421   1.907       .  S
Zn2           O7   2.036       .  S
Zn2           O9   2.106       .  S
Zn2          O13   2.092       .  S
Zn2        O2129   1.965       .  S
Zn3           O8   2.081       .  S
Zn3          O11   2.022       .  S
Zn3          O14   2.087       .  S
Zn3           O5   1.965       .  S
Zn4          O16   1.975       .  S
Zn4         O720   1.983       .  S
Zn4        O1431   1.921       .  S
Zn4         O713   1.916       .  S
O5        Zn1417   1.914   1_455  S
O5        Zn2126   1.965   1_445  S
O5         Zn712   1.919       .  S
O6         Zn709   1.962       .  S
O6           C18   1.267       .  A
O7          C727   1.275       .  A
O8           C20   1.285       .  A
O9           C18   1.287       .  A
O10       Zn1417   1.944   1_455  S
O10          C20   1.269       .  A
O11        C1435   1.272       .  A
O12        Zn712   1.981       .  S
O12          C21   1.266       .  A
O13          C22   1.286       .  A
O14          C21   1.279       .  A
O15       Zn1420   1.937       .  S
O15          C22   1.267       .  A
O16          C23   1.267       .  A
O17        C2147   1.273       .  A
C18         C676   1.492       .  S
C19         O715   1.273   1_545  A
C19        O1427   1.276       .  A
C19        C1405   1.492       .  S
C20         C664   1.476       .  S
C21         C685   1.498       .  S
C22         C649   1.486       .  S
C23        O2141   1.273   1_455  A
C23        C2053   1.471       .  S
Zn24         O29   1.977       .  S
Zn24         O40   2.001       .  S
Zn24       O1449   1.945       .  S
Zn24       O1444   1.917       .  S
Zn25         O30   2.003       .  S
Zn25         O32   2.102       .  S
Zn25         O36   2.080       .  S
Zn25       O1444   1.961       .  S
Zn26         O31   2.103       .  S
Zn26         O34   2.033       .  S
Zn26         O37   2.119       .  S
Zn26         O28   1.976       .  S
Zn27         O35   1.945       .  S
Zn27         O39   2.022       .  S
Zn27       O1454   1.947       .  S
Zn27         O28   1.909       .  S
O28       Zn1440   1.909       .  S
O28       Zn1441   1.958       .  S
O29          C41   1.268       .  A
O30          C42   1.271       .  A
O31          C43   1.287       .  A
O32          C41   1.278       .  A
O33       Zn1440   1.947       .  S
O33          C43   1.267       .  A
O34        C1458   1.276       .  A
O35          C44   1.265       .  A
O36          C45   1.284       .  A
O37          C44   1.286       .  A
O38       Zn1443   1.942       .  S
O38          C45   1.268       .  A
O39          C46   1.272       .  A
O40        C1462   1.271       .  A
C41         C613   1.506       .  S
C42        O1450   1.277   1_455  A
C42         C625   1.490       .  S
C43         C661   1.492       .  S
C44         C601   1.489       .  S
C45         C652   1.467       .  S
C46        O1456   1.268       .  A
C46         C589   1.481       .  S
Zn47         O52   2.129       .  S
Zn47         O56   2.113       .  S
Zn47         O63   2.064       .  S
Zn47         O51   1.970       .  S
Zn48         O53   1.997       .  S
Zn48         O55   1.923       .  S
Zn48        O767   1.940       .  S
Zn48         O51   1.907       .  S
Zn49         O57   2.002       .  S
Zn49         O60   1.943   1_565  S
Zn49        O762   1.984       .  S
Zn49        O759   1.946       .  S
Zn50         O58   2.076       .  S
Zn50         O61   2.107       .  S
Zn50         O62   2.068       .  S
Zn50        O759   1.977   1_545  S
O51        Zn757   1.943       .  S
O51        Zn758   1.969       .  S
O52          C64   1.290       .  A
O53          C65   1.268       .  A
O54        Zn757   1.978       .  S
O54          C66   1.267       .  A
O55          C64   1.265       .  A
O56          C66   1.284       .  A
O57         C773   1.268       .  A
O58          C67   1.285       .  A
O59        Zn756   1.945       .  S
O59          C68   1.264       .  A
O60          C67   1.266       .  A
O61          C68   1.286   1_545  A
O62         C777   1.279   1_545  A
O63          C69   1.279       .  A
C64         C553   1.498       .  S
C65         O765   1.268       .  A
C65         C580   1.485       .  S
C66         C688   1.502       .  S
C67         C565   1.475       .  S
C68         C673   1.495       .  S
C69         O770   1.276       .  A
C69         C544   1.502       .  S
Zn70         O75   1.982       .  S
Zn70         O79   1.959       .  S
Zn70         O86   2.006       .  S
Zn70         O74   1.933       .  S
Zn71         O76   2.017       .  S
Zn71         O78   2.096       .  S
Zn71         O82   2.096       .  S
Zn71         O74   1.963       .  S
Zn72         O77   2.095       .  S
Zn72         O80   2.037       .  S
Zn72         O83   2.100       .  S
Zn72         O74   1.959       .  S
Zn73         O81   1.967       .  S
Zn73         O84   1.937       .  S
Zn73         O85   2.034       .  S
Zn73         O74   1.914       .  S
O75          C87   1.268       .  A
O76          C88   1.273       .  A
O77          C89   1.288       .  A
O78          C87   1.278       .  A
O79          C89   1.268       .  A
O80          C88   1.274       .  A
O81          C90   1.267       .  A
O82          C91   1.287       .  A
O83          C90   1.286       .  A
O84          C91   1.267       .  A
O85          C92   1.273       .  A
O86          C92   1.271       .  A
C87         C616   1.508       .  S
C88         C529   1.484       .  S
C89         C556   1.492       .  S
C90         C604   1.494       .  S
C91         C568   1.485       .  S
C92         C517   1.487       .  S
Zn93         O98   2.102       .  S
Zn93        O109   2.035       .  S
Zn93        O810   2.097   1_545  S
Zn93       O2221   1.967   1_455  S
Zn94         O99   2.050       .  S
Zn94        O101   1.967       .  S
Zn94        O105   1.952   1_455  S
Zn94       O2221   1.911   1_456  S
Zn95        O100   1.971       .  S
Zn95        O103   2.003       .  S
Zn95        O106   1.943       .  S
Zn95         O97   1.917       .  S
Zn96        O104   2.117       .  S
Zn96        O108   2.041       .  S
Zn96        O815   2.106       .  S
Zn96         O97   1.983   1_554  S
O97       Zn2217   1.965   1_556  S
O97       Zn2218   1.921       .  S
O98         C110   1.286       .  A
O99        C2235   1.275   1_455  A
O100       C1528   1.268   1_556  A
O101        C110   1.268   1_556  A
O102       Zn801   2.084       .  S
O102        C112   1.286   1_454  A
O103        C111   1.270       .  A
O104        C113   1.287       .  A
O105       C1530   1.270   1_556  A
O106        C113   1.267   1_556  A
O107       Zn804   2.073       .  S
O107        C114   1.282       .  A
O108        C115   1.275       .  A
O109       C2239   1.274   1_455  A
C110        C469   1.493       .  S
C111       O2223   1.276       .  A
C111        C505   1.497       .  S
C112       O1516   1.267       .  A
C112        C484   1.487   1_556  S
C113        C457   1.498       .  S
C114       O1521   1.268   1_554  A
C114        C493   1.472       .  S
C115       O2233   1.272       .  A
C115        C700   1.489       .  S
Zn116       O121   2.015       .  S
Zn116       O125   2.116       .  S
Zn116       O132   2.126       .  S
Zn116      O1536   1.975   1_554  S
Zn117       O122   2.089       .  S
Zn117       O124   2.022       .  S
Zn117       O128   2.091       .  S
Zn117       O120   1.965   1_454  S
Zn118       O123   1.985       .  S
Zn118       O126   1.955       .  S
Zn118       O129   2.034       .  S
Zn118      O1536   1.931       .  S
Zn119       O127   2.041       .  S
Zn119       O130   1.971       .  S
Zn119       O131   1.956   1_455  S
Zn119       O120   1.911   1_455  S
O120      Zn1532   1.959   1_556  S
O120      Zn1534   1.921       .  S
O121       C1549   1.272       .  A
O122        C134   1.284   1_454  A
O123        C135   1.270       .  A
O124        C133   1.273   1_455  A
O125        C135   1.282   1_554  A
O126       C1550   1.268       .  A
O127        C136   1.274   1_455  A
O128        C137   1.285   1_554  A
O129       C1552   1.274       .  A
O130        C137   1.269       .  A
O131       C1554   1.269       .  A
O132        C138   1.289   1_554  A
C133       O1537   1.271       .  A
C133        C628   1.480       .  S
C134       O1542   1.267       .  A
C134        C496   1.490       .  S
C135        C424   1.513       .  S
C136       O1545   1.272       .  A
C136        C448   1.493       .  S
C137        C433   1.489       .  S
C138       O1547   1.267       .  A
C138        C481   1.490   1_556  S
Zn139       O148   2.018       .  S
Zn139       O155   2.099       .  S
Zn139       O852   2.087       .  S
Zn139       O143   1.964   1_554  S
Zn140       O145   1.969       .  S
Zn140       O147   1.969       .  S
Zn140       O151   1.984       .  S
Zn140       O851   1.913   1_545  S
Zn141       O146   2.003       .  S
Zn141       O149   2.123   1_565  S
Zn141       O860   2.103       .  S
Zn141       O851   1.961   1_554  S
Zn142       O150   1.962       .  S
Zn142       O153   2.044       .  S
Zn142       O154   1.969       .  S
Zn142       O143   1.922       .  S
O143       Zn848   1.904       .  S
O143       Zn849   1.963   1_556  S
O144       Zn847   2.089   1_545  S
O144        C156   1.285       .  A
O145        C157   1.267   1_556  A
O146        C866   1.271       .  A
O147        C156   1.269   1_556  A
O148        C158   1.274       .  A
O149        C157   1.281       .  A
O150        C159   1.270   1_556  A
O151        C868   1.269   1_545  A
O152       Zn849   2.063       .  S
O152        C159   1.282       .  A
O153        C160   1.274       .  A
O154        C161   1.268       .  A
O155        C161   1.286   1_554  A
C156        C397   1.490       .  S
C157        C421   1.508       .  S
C158        O854   1.272       .  A
C158        C577   1.481       .  S
C159        C385   1.466       .  S
C160        O859   1.266       .  A
C160        C412   1.477       .  S
C161        C436   1.491       .  S
Zn162       O167   2.026       .  S
Zn162       O171   2.103       .  S
Zn162       O178   2.098       .  S
Zn162       O166   1.980       .  S
Zn163       O168   2.098       .  S
Zn163       O170   2.027       .  S
Zn163       O174   2.075       .  S
Zn163       O166   1.969       .  S
Zn164       O169   1.952       .  S
Zn164       O172   1.943       .  S
Zn164       O175   2.031       .  S
Zn164       O166   1.917   1_556  S
Zn165       O173   1.994       .  S
Zn165       O176   1.978       .  S
Zn165       O177   1.938       .  S
Zn165       O166   1.921   1_556  S
O167        C179   1.275       .  A
O168        C180   1.285       .  A
O169        C181   1.266   1_556  A
O170        C179   1.274       .  A
O171        C181   1.285       .  A
O172        C180   1.266   1_556  A
O173        C182   1.268       .  A
O174        C183   1.278       .  A
O175        C182   1.272       .  A
O176        C183   1.269   1_556  A
O177        C184   1.265   1_556  A
O178        C184   1.285       .  A
C179        C532   1.484       .  S
C180        C400   1.477       .  S
C181        C472   1.485       .  S
C182        C373   1.478       .  S
C183        C460   1.482       .  S
C184        C388   1.492       .  S
Zn185       O190   1.965   1_545  S
Zn185       O194   1.961       .  S
Zn185       O201   1.997       .  S
Zn185      O2313   1.921   1_445  S
Zn186       O191   2.036       .  S
Zn186       O197   2.108       .  S
Zn186      O1609   2.120       .  S
Zn186       O189   1.954       .  S
Zn187       O192   2.094       .  S
Zn187       O195   2.037   1_455  S
Zn187      O1614   2.119   1_455  S
Zn187      O2313   1.960   1_445  S
Zn188       O196   1.948       .  S
Zn188       O199   1.951       .  S
Zn188       O200   2.008       .  S
Zn188       O189   1.919       .  S
O189      Zn2309   1.916       .  S
O189      Zn2311   1.968       .  S
O190        C910   1.264       .  A
O191        C203   1.276       .  A
O192        C204   1.288       .  A
O193      Zn1602   2.105   1_455  S
O193        C202   1.284       .  A
O194        C204   1.269       .  A
O195       C2327   1.276   1_545  A
O196        C913   1.265       .  A
O197        C206   1.287       .  A
O198      Zn1603   2.088       .  S
O198        C205   1.286       .  A
O199        C206   1.269       .  A
O200        C207   1.269       .  A
O201       C2331   1.269   1_545  A
C202        O898   1.266       .  A
C202        C361   1.500       .  S
C203       O2319   1.274       .  A
C203        C508   1.491       .  S
C204        C337   1.491       .  S
C205        O904   1.269   1_545  A
C205        C349   1.490       .  S
C206        C328   1.487       .  S
C207       O2325   1.268       .  A
C207        C640   1.471       .  S
Zn208       O213   2.031       .  S
Zn208       O224   2.102       .  S
Zn208      O1633   2.110       .  S
Zn208       O212   1.959       .  S
Zn209       O214   2.072       .  S
Zn209       O216   2.030       .  S
Zn209      O1636   2.073   1_455  S
Zn209      O1628   1.961       .  S
Zn210       O215   1.945       .  S
Zn210       O218   1.948       .  S
Zn210       O221   2.011       .  S
Zn210      O1628   1.897       .  S
Zn211       O219   2.005       .  S
Zn211       O222   1.931       .  S
Zn211       O223   1.973       .  S
Zn211       O212   1.918       .  S
O212      Zn1625   1.964       .  S
O212      Zn1626   1.903       .  S
O213        C225   1.274       .  A
O214        C226   1.283       .  A
O215        C227   1.267       .  A
O216       C1641   1.274       .  A
O217      Zn1624   2.080       .  S
O217        C227   1.283       .  A
O218        C226   1.266       .  A
O219        C228   1.269       .  A
O220      Zn1625   2.055       .  S
O220        C229   1.279       .  A
O221       C1644   1.271       .  A
O222        C229   1.265       .  A
O223        C230   1.267       .  A
O224        C230   1.286       .  A
C225       O1632   1.275       .  A
C225        C445   1.496       .  S
C226        C289   1.481       .  S
C227        C313   1.483       .  S
C228       O1637   1.270       .  A
C228        C592   1.477       .  S
C229        C301   1.465       .  S
C230        C277   1.493       .  S
Zn231       O236   1.951       .  S
Zn231       O240   1.945       .  S
Zn231       O247   2.009       .  S
Zn231       O943   1.917       .  S
Zn232       O237   2.068       .  S
Zn232       O239   2.120       .  S
Zn232       O243   2.119       .  S
Zn232       O943   1.967       .  S
Zn233       O238   2.099       .  S
Zn233       O241   2.040       .  S
Zn233       O244   2.079       .  S
Zn233       O235   1.965       .  S
Zn234       O242   1.933       .  S
Zn234       O245   1.974       .  S
Zn234       O246   2.002       .  S
Zn234       O235   1.934       .  S
O235       Zn939   1.910       .  S
O235       Zn940   1.968       .  S
O236        C248   1.267       .  A
O237        C957   1.279       .  A
O238        C250   1.285       .  A
O239        C248   1.288       .  A
O240        C958   1.265   1_545  A
O241        C249   1.276       .  A
O242        C251   1.265       .  A
O243        C252   1.286       .  A
O244        C251   1.284       .  A
O245        C960   1.268       .  A
O246        C253   1.266       .  A
O247        C961   1.270       .  A
C248        C280   1.489       .  S
C249        O945   1.279       .  A
C249        C541   1.502       .  S
C250        O948   1.264       .  A
C250        C352   1.487       .  S
C251        C292   1.474       .  S
C252        O953   1.268       .  A
C252        C364   1.506       .  S
C253        O955   1.268       .  A
C253        C409   1.475       .  S
Zn254       O259   2.013       .  S
Zn254       O263   1.948       .  S
Zn254       O270   1.973       .  S
Zn254       O258   1.916       .  S
Zn255       O260   1.946       .  S
Zn255       O262   2.023       .  S
Zn255       O266   1.942       .  S
Zn255       O258   1.895       .  S
Zn256       O261   2.060       .  S
Zn256       O264   2.087       .  S
Zn256       O267   2.021       .  S
Zn256       O258   1.963       .  S
Zn257       O265   2.007       .  S
Zn257       O268   2.080       .  S
Zn257       O269   2.082       .  S
Zn257       O258   1.962       .  S
O259        C271   1.271       .  A
O260        C272   1.265       .  A
O261        C273   1.283       .  A
O262        C271   1.273       .  A
O263        C273   1.268       .  A
O264        C272   1.282       .  A
O265        C274   1.273       .  A
O266        C275   1.267       .  A
O267        C274   1.273       .  A
O268        C275   1.284       .  A
O269        C276   1.276       .  A
O270        C276   1.268       .  A
C271        C520   1.485       .  S
C272        C340   1.477       .  S
C273        C304   1.471       .  S
C274        C376   1.488       .  S
C275        C316   1.470       .  S
C276        C325   1.499       .  S
C277        C278   1.404       .  A
C277        C282   1.417       .  A
C278        C279   1.404       .  A
C278        H283   1.084       .  S
C279        C280   1.414       .  A
C279        O284   1.372       .  S
C280        C281   1.405       .  A
C281        C282   1.409       .  A
C281        H285   1.084       .  S
C282        O286   1.372       .  S
O284        H288   0.992       .  S
O286        H287   0.992       .  S
C289        C290   1.401       .  A
C289        C294   1.417       .  A
C290        C291   1.399       .  A
C290        H295   1.084       .  S
C291        C292   1.414       .  A
C291        O296   1.373       .  S
C292        C293   1.398       .  A
C293        C294   1.401       .  A
C293        H297   1.084       .  S
C294        O298   1.373       .  S
O296        H300   0.992       .  S
O298        H299   0.992       .  S
C301        C302   1.409       .  A
C301        C306   1.399       .  A
C302        C303   1.394       .  A
C302        H307   1.085       .  S
C303        C304   1.401       .  A
C303        O308   1.372       .  S
C304        C305   1.413       .  A
C305        C306   1.399       .  A
C305        H309   1.084       .  S
C306        O310   1.372       .  S
O308        H312   0.992       .  S
O310        H311   0.992       .  S
C313        C314   1.415       .  A
C313        C318   1.403       .  A
C314        C315   1.399       .  A
C314        H319   1.084       .  S
C315        C316   1.397       .  A
C315        O320   1.371       .  S
C316        C317   1.411       .  A
C317        C318   1.402       .  A
C317        H321   1.084       .  S
C318        O322   1.371       .  S
O320        H324   0.992       .  S
O322        H323   0.992       .  S
C325        C326   1.408       .  A
C325        C330   1.415       .  A
C326        C327   1.397       .  A
C326        H331   1.083       .  S
C327        C328   1.409       .  A
C327        O332   1.372       .  S
C328        C329   1.409       .  A
C329        C330   1.414       .  A
C329        H333   1.083       .  S
C330        O334   1.371       .  S
O332        H336   0.991       .  S
O334        H335   0.992       .  S
C337        C338   1.418       .  A
C337        C342   1.405       .  A
C338        C339   1.405       .  A
C338        H343   1.084       .  S
C339        C340   1.400       .  A
C339        O344   1.371       .  S
C340        C341   1.409       .  A
C341        C342   1.400       .  A
C341        H345   1.084       .  S
C342        O346   1.372       .  S
O344        H348   0.992       .  S
O346        H347   0.992       .  S
C349        C350   1.400       .  A
C349       C1062   1.418   1_545  A
C350        C351   1.402       .  A
C350        H355   1.084       .  S
C351       C1060   1.419   1_545  A
C351        O356   1.372       .  S
C352        C353   1.400       .  A
C352       C1059   1.419       .  A
C353        C354   1.404       .  A
C353        H357   1.084       .  S
C354       C1057   1.420       .  A
C354        O358   1.372       .  S
O356        H360   0.992   1_545  S
O358        H359   0.992       .  S
C361        C362   1.413       .  A
C361       C1074   1.410       .  A
C362        C363   1.408       .  A
C362        H367   1.083       .  S
C363       C1072   1.411       .  A
C363        O368   1.371       .  S
C364        C365   1.416   1_545  A
C364       C1071   1.409       .  A
C365        C366   1.410       .  A
C365        H369   1.083   1_565  S
C366       C1069   1.409       .  A
C366        O370   1.371       .  S
O368        H372   0.992       .  S
O370        H371   0.992       .  S
C373        C374   1.403       .  A
C373        C378   1.408       .  A
C374        C375   1.403       .  A
C374        H379   1.084       .  S
C375        C376   1.415       .  A
C375        O380   1.371       .  S
C376        C377   1.406       .  A
C377        C378   1.397       .  A
C377        H381   1.083       .  S
C378        O382   1.372       .  S
O380        H384   0.992       .  S
O382        H383   0.991       .  S
C385        C386   1.408       .  A
C385        C390   1.397   1_554  A
C386        C387   1.404       .  A
C386        H391   1.084       .  S
C387        C388   1.407       .  A
C387        O392   1.371       .  S
C388        C389   1.417   1_554  A
C389        C390   1.398       .  A
C389        H393   1.083       .  S
C390        O394   1.372       .  S
O392        H396   0.992       .  S
O394        H395   0.992       .  S
C397        C398   1.417       .  A
C397        C402   1.406       .  A
C398        C399   1.405       .  A
C398        H403   1.083   1_554  S
C399        C400   1.400       .  A
C399        O404   1.372       .  S
C400        C401   1.410       .  A
C401        C402   1.401       .  A
C401        H405   1.084       .  S
C402        O406   1.372       .  S
O404        H408   0.992   1_554  S
O406        H407   0.992       .  S
C409        C414   1.412       .  A
C409       C1118   1.400       .  A
C410        C411   1.394       .  A
C410       C1117   1.403   1_545  A
C410        H415   1.084       .  S
C411       C1120   1.410   1_545  A
C411        O416   1.372       .  S
C412        C413   1.404       .  A
C412       C1119   1.412       .  A
C413        C414   1.403       .  A
C413        H417   1.083       .  S
C414        O418   1.372       .  S
O416        H420   0.992       .  S
O418        H419   0.992       .  S
C421        C422   1.406   1_554  A
C421        C426   1.416       .  A
C422        C423   1.400       .  A
C422        H427   1.083       .  S
C423        C424   1.417       .  A
C423        O428   1.372       .  S
C424        C425   1.414   1_556  A
C425        C426   1.420       .  A
C425        H429   1.083       .  S
C426        O430   1.371       .  S
O428        H432   0.993       .  S
O430        H431   0.992       .  S
C433        C434   1.398       .  A
C433        C438   1.419       .  A
C434        C435   1.405       .  A
C434        H439   1.084       .  S
C435        C436   1.421       .  A
C435        O440   1.373       .  S
C436        C437   1.399   1_556  A
C437        C438   1.405   1_554  A
C437        H441   1.083       .  S
C438        O442   1.373   1_556  S
O440        H444   0.992       .  S
O442        H443   0.992   1_554  S
C445        C446   1.406       .  A
C445       C1866   1.415       .  A
C446        C447   1.402       .  A
C446        H451   1.083       .  S
C447       C1864   1.414       .  A
C447        O452   1.372       .  S
C448        C449   1.407       .  A
C448       C1863   1.413   1_655  A
C449        C450   1.399       .  A
C449        H453   1.083       .  S
C450       C1861   1.413   1_655  A
C450        O454   1.372       .  S
O452        H456   0.991       .  S
O454        H455   0.992   1_655  S
C457        C458   1.414   1_554  A
C457        C462   1.412       .  A
C458        C459   1.395       .  A
C458        H463   1.083       .  S
C459        C460   1.402   1_556  A
C459        O464   1.372       .  S
C460        C461   1.410       .  A
C461        C462   1.413       .  A
C461        H465   1.083       .  S
C462        O466   1.371       .  S
O464        H468   0.993       .  S
O466        H467   0.992       .  S
C469        C470   1.418       .  A
C469        C474   1.404       .  A
C470        C471   1.406       .  A
C470        H475   1.084       .  S
C471        C472   1.401       .  A
C471        O476   1.371       .  S
C472        C473   1.413       .  A
C473        C474   1.403       .  A
C473        H477   1.084       .  S
C474        O478   1.371       .  S
O476        H480   0.992   1_554  S
O478        H479   0.992   1_554  S
C481        C482   1.409       .  A
C481       C1902   1.410   1_554  A
C482        C483   1.416       .  A
C482        H487   1.083       .  S
C483       C1900   1.416       .  A
C483        O488   1.371       .  S
C484        C485   1.417   1_554  A
C484       C1899   1.407       .  A
C485        C486   1.396       .  A
C485        H489   1.083       .  S
C486       C1897   1.397   1_556  A
C486        O490   1.371       .  S
O488        H492   0.993       .  S
O490        H491   0.992       .  S
C493        C498   1.399   1_554  A
C493       C1910   1.410       .  A
C494        C495   1.409       .  A
C494       C1909   1.408       .  A
C494        H499   1.084       .  S
C495        C496   1.411   1_554  A
C495        O500   1.371   1_655  S
C496       C1913   1.410       .  A
C497        C498   1.401       .  A
C497       C1912   1.416   1_556  A
C497        H501   1.084       .  S
C498        O502   1.372       .  S
O500        H504   0.993   1_455  S
O502        H503   0.992       .  S
C505        C506   1.410       .  A
C505       C2634   1.413       .  A
C506        C507   1.402       .  A
C506        H511   1.083       .  S
C507        C508   1.410       .  A
C507        O512   1.372       .  S
C508       C2633   1.408       .  A
C509        C510   1.407       .  A
C509       C2632   1.408   1_445  A
C509        H513   1.083       .  S
C510       C2629   1.414   1_455  A
C510        O514   1.371       .  S
O512        H516   0.991       .  S
O514        H515   0.992       .  S
C517        C518   1.406       .  A
C517        C522   1.411       .  A
C518        C519   1.399       .  A
C518        H523   1.084       .  S
C519        C520   1.409       .  A
C519        O524   1.372       .  S
C520        C521   1.407       .  A
C521        C522   1.405       .  A
C521        H525   1.084       .  S
C522        O526   1.372       .  S
O524        H528   0.992       .  S
O526        H527   0.992       .  S
C529        C530   1.406       .  A
C529        C534   1.410       .  A
C530        C531   1.405       .  A
C530        H535   1.084       .  S
C531        C532   1.412       .  A
C531        O536   1.372       .  S
C532        C533   1.404       .  A
C533        C534   1.400       .  A
C533        H537   1.084       .  S
C534        O538   1.372       .  S
O536        H540   0.992       .  S
O538        H539   0.992       .  S
C541        C542   1.408       .  A
C541       C1254   1.413       .  A
C542        C543   1.406       .  A
C542        H547   1.083       .  S
C543        C544   1.411       .  A
C543        O548   1.371       .  S
C544       C1253   1.411       .  A
C545        C546   1.410       .  A
C545       C1252   1.410   1_545  A
C545        H549   1.083       .  S
C546       C1249   1.412   1_545  A
C546        O550   1.371       .  S
O548        H552   0.992       .  S
O550        H551   0.992       .  S
C553        C554   1.418       .  A
C553        C558   1.406       .  A
C554        C555   1.398       .  A
C554        H559   1.083       .  S
C555        C556   1.403       .  A
C555        O560   1.372       .  S
C556        C557   1.417       .  A
C557        C558   1.408       .  A
C557        H561   1.083       .  S
C558        O562   1.371       .  S
O560        H564   0.991       .  S
O562        H563   0.992       .  S
C565        C566   1.397       .  A
C565        C570   1.414       .  A
C566        C567   1.399       .  A
C566        H571   1.084       .  S
C567        C568   1.418       .  A
C567        O572   1.373       .  S
C568        C569   1.404       .  A
C569        C570   1.404       .  A
C569        H573   1.083       .  S
C570        O574   1.372       .  S
O572        H576   0.993       .  S
O574        H575   0.993       .  S
C577        C582   1.410       .  A
C577       C1286   1.405       .  A
C578        C579   1.400       .  A
C578       C1285   1.406       .  A
C578        H583   1.083       .  S
C579       C1288   1.411       .  A
C579        O584   1.372       .  S
C580        C581   1.406       .  A
C580       C1287   1.412       .  A
C581        C582   1.397       .  A
C581        H585   1.083       .  S
C582        O586   1.372       .  S
O584        H588   0.992   1_565  S
O586        H587   0.992       .  S
C589        C594   1.411       .  A
C589       C2006   1.407       .  A
C590        C591   1.398       .  A
C590       C2005   1.408       .  A
C590        H595   1.083       .  S
C591       C2008   1.408       .  A
C591        O596   1.372       .  S
C592        C593   1.405       .  A
C592       C2007   1.408       .  A
C593        C594   1.400       .  A
C593        H597   1.083       .  S
C594        O598   1.371       .  S
O596        H600   0.991       .  S
O598        H599   0.992       .  S
C601        C602   1.414       .  A
C601        C606   1.403       .  A
C602        C603   1.403       .  A
C602        H607   1.084       .  S
C603        C604   1.403       .  A
C603        O608   1.371       .  S
C604        C605   1.417       .  A
C605        C606   1.408       .  A
C605        H609   1.084       .  S
C606        O610   1.371       .  S
O608        H612   0.992       .  S
O610        H611   0.991       .  S
C613        C614   1.406       .  A
C613        C618   1.416       .  A
C614        C615   1.399       .  A
C614        H619   1.083       .  S
C615        C616   1.416       .  A
C615        O620   1.372       .  S
C616        C617   1.413       .  A
C617        C618   1.418       .  A
C617        H621   1.083       .  S
C618        O622   1.371       .  S
O620        H624   0.992       .  S
O622        H623   0.992       .  S
C625        C630   1.416       .  A
C625       C2042   1.406   1_455  A
C626        C627   1.400       .  A
C626       C2041   1.405       .  A
C626        H631   1.083       .  S
C627       C2044   1.409       .  A
C627        O632   1.372       .  S
C628        C629   1.402   1_655  A
C628       C2043   1.410       .  A
C629        C630   1.400       .  A
C629        H633   1.084       .  S
C630        O634   1.372       .  S
O632        H636   0.992       .  S
O634        H635   0.992       .  S
C637       C1439   1.465       .  S
C637        C638   1.402       .  A
C637       C2766   1.406       .  A
C638        C639   1.401       .  A
C638        H643   1.084       .  S
C639        C640   1.410       .  A
C639        O644   1.372       .  S
C640       C2765   1.402       .  A
C641        C642   1.396       .  A
C641       C2764   1.402       .  A
C641        H645   1.084       .  S
C642       C2761   1.410       .  A
C642        O646   1.372       .  S
O644        H648   0.992       .  S
O646        H647   0.992   1_545  S
C649        C654   1.405       .  A
C649       C2066   1.417       .  A
C650        C651   1.396       .  A
C650       C2065   1.417       .  A
C650        H655   1.083       .  S
C651        C652   1.398       .  A
C651        O656   1.373       .  S
C652       C2069   1.410       .  A
C653        C654   1.401       .  A
C653       C2068   1.409       .  A
C653        H657   1.084       .  S
C654        O658   1.371       .  S
O656        H660   0.992       .  S
O658        H659   0.992       .  S
C661        C666   1.409       .  A
C661       C2078   1.414       .  A
C662        C663   1.403       .  A
C662       C2077   1.414       .  A
C662        H667   1.083       .  S
C663        C664   1.400       .  A
C663        O668   1.371       .  S
C664       C2081   1.413   1_455  A
C665        C666   1.407       .  A
C665       C2080   1.408       .  A
C665        H669   1.084       .  S
C666        O670   1.371       .  S
O668        H672   0.992       .  S
O670        H671   0.993       .  S
C673        C674   1.399   1_565  A
C673       C1386   1.422       .  A
C674        C675   1.404       .  A
C674        H679   1.083       .  S
C675       C1384   1.423   1_545  A
C675        O680   1.372       .  S
C676        C677   1.400       .  A
C676       C1383   1.419       .  A
C677        C678   1.405       .  A
C677        H681   1.084       .  S
C678       C1381   1.421       .  A
C678        O682   1.373       .  S
O680        H684   0.992       .  S
O682        H683   0.992       .  S
C685        C690   1.415       .  A
C685       C1394   1.406       .  A
C686        C687   1.407       .  A
C686       C1393   1.406       .  A
C686        H691   1.083       .  S
C687        C688   1.416       .  A
C687        O692   1.371       .  S
C688       C1397   1.407       .  A
C689        C690   1.409   1_565  A
C689       C1396   1.407       .  A
C689        H693   1.083       .  S
C690        O694   1.371       .  S
O692        H696   0.992       .  S
O694        H695   0.992       .  S
C697        C727   1.491       .  S
C697        C702   1.413       .  A
C697       C2822   1.405       .  A
C698        C699   1.405       .  A
C698       C2821   1.407       .  A
C698        H703   1.084       .  S
C699       C2824   1.412       .  A
C699        O704   1.372       .  S
C700        C701   1.407       .  A
C700       C2823   1.411       .  A
C701        C702   1.406       .  A
C701        H705   1.083       .  S
C702        O706   1.372       .  S
O704        H708   0.992       .  S
O706        H707   0.992       .  S
Zn709      O2134   1.955       .  S
Zn709       O725   2.017       .  S
Zn709      O2129   1.910       .  S
Zn710       O715   2.021       .  S
Zn710       O717   2.088       .  S
Zn710       O721   2.090       .  S
Zn710      O1421   1.960   1_565  S
Zn711       O716   2.095       .  S
Zn711       O719   2.038       .  S
Zn711       O722   2.102       .  S
Zn711       O713   1.960       .  S
Zn712      O2139   1.939   1_545  S
Zn712       O724   1.982       .  S
O713      Zn2125   1.911   1_455  S
O713      Zn1418   1.973   1_455  S
O714        C726   1.267   1_545  A
O716        C728   1.286       .  A
O717        C726   1.286       .  A
O718      Zn2125   1.957   1_455  S
O718        C728   1.269       .  A
O719       C2143   1.276       .  A
O720        C729   1.267       .  A
O721        C730   1.284       .  A
O722        C729   1.282       .  A
O723      Zn2128   1.939       .  S
O723        C730   1.266       .  A
O724        C731   1.268       .  A
O725       C1439   1.271       .  A
C726       C1384   1.496       .  S
C727       O2135   1.275       .  A
C728       C1372   1.476       .  S
C729       C1393   1.502       .  S
C730       C1357   1.484       .  S
C731       O1433   1.273       .  A
C731       C2761   1.477       .  S
Zn732       O737   1.970       .  S
Zn732      O2157   1.959       .  S
Zn732       O748   1.982       .  S
Zn732      O2152   1.911       .  S
Zn733       O738   2.003       .  S
Zn733       O740   2.093       .  S
Zn733       O744   2.083       .  S
Zn733      O2152   1.965       .  S
Zn734       O739   2.091       .  S
Zn734       O742   2.040       .  S
Zn734       O745   2.117       .  S
Zn734       O736   1.970       .  S
Zn735       O743   1.929       .  S
Zn735      O2162   1.934       .  S
Zn735       O747   2.026       .  S
Zn735       O736   1.904       .  S
O736      Zn2148   1.913       .  S
O736      Zn2149   1.965       .  S
O737        C749   1.266       .  A
O738        C750   1.273       .  A
O739        C751   1.285       .  A
O740        C749   1.277       .  A
O741      Zn2148   1.938       .  S
O741        C751   1.266       .  A
O742       C2166   1.277       .  A
O743        C752   1.263       .  A
O744        C753   1.284       .  A
O745        C752   1.286       .  A
O746      Zn2151   1.958   1_455  S
O746        C753   1.269       .  A
O747        C754   1.271       .  A
O748       C2170   1.269       .  A
C749       C1321   1.500       .  S
C750       O2158   1.276   1_455  A
C750       C1333   1.481   1_455  S
C751       C1369   1.486       .  S
C752       C1309   1.480       .  S
C753       C1360   1.470       .  S
C754       O2164   1.268       .  A
C754       C1297   1.472       .  S
Zn755       O760   2.105       .  S
Zn755       O764   2.098       .  S
Zn755       O771   2.041       .  S
Zn755       O759   1.968       .  S
Zn756       O761   2.013       .  S
Zn756       O763   1.930       .  S
Zn756       O759   1.914       .  S
Zn757       O765   2.008       .  S
Zn757       O768   1.946       .  S
Zn758       O766   2.086       .  S
Zn758       O769   2.122       .  S
Zn758       O770   2.048       .  S
O760        C772   1.287       .  A
O761        C773   1.269       .  A
O762        C774   1.268       .  A
O763        C772   1.267       .  A
O764        C774   1.282       .  A
O766        C775   1.286       .  A
O767        C776   1.263       .  A
O768        C775   1.266       .  A
O769        C776   1.288       .  A
O771        C777   1.275       .  A
C772       C1261   1.483       .  S
C773       C1288   1.483       .  S
C774       C1396   1.499       .  S
C775       C1273   1.479       .  S
C776       C1381   1.494       .  S
C777       C1252   1.504       .  S
Zn778       O783   1.953       .  S
Zn778       O787   1.972       .  S
Zn778       O794   1.991       .  S
Zn778       O782   1.925       .  S
Zn779       O784   2.024       .  S
Zn779       O786   2.107       .  S
Zn779       O790   2.089       .  S
Zn779       O782   1.966       .  S
Zn780       O785   2.073       .  S
Zn780       O788   2.032       .  S
Zn780       O791   2.086       .  S
Zn780       O782   1.955       .  S
Zn781       O789   1.962       .  S
Zn781       O792   1.941       .  S
Zn781       O793   2.020       .  S
Zn781       O782   1.908       .  S
O783        C795   1.267       .  A
O784        C796   1.274       .  A
O785        C797   1.282       .  A
O786        C795   1.284       .  A
O787        C797   1.267       .  A
O788        C796   1.274       .  A
O789        C798   1.268       .  A
O790        C799   1.286       .  A
O791        C798   1.284       .  A
O792        C799   1.267       .  A
O793        C800   1.272       .  A
O794        C800   1.269       .  A
C795       C1324   1.490       .  S
C796       C1237   1.490       .  S
C797       C1264   1.493       .  S
C798       C1312   1.494       .  S
C799       C1276   1.484       .  S
C800       C1225   1.479       .  S
Zn801       O806   2.092       .  S
Zn801       O817   2.027       .  S
Zn801      O1513   1.964   1_454  S
Zn802       O807   2.053       .  S
Zn802       O809   1.967   1_655  S
Zn802       O813   1.943       .  S
Zn802      O1513   1.906       .  S
Zn803       O808   1.966       .  S
Zn803       O811   2.009       .  S
Zn803       O814   1.970       .  S
Zn803       O805   1.923   1_565  S
Zn804       O812   2.084   1_545  S
Zn804       O816   2.030       .  S
Zn804       O805   1.979   1_554  S
O805      Zn1509   1.971   1_556  S
O805      Zn1510   1.922       .  S
O806        C818   1.285       .  A
O807       C1527   1.275       .  A
O808       C2236   1.267       .  A
O809        C818   1.269   1_556  A
O810        C820   1.288   1_455  A
O811        C819   1.272   1_565  A
O812        C821   1.282       .  A
O813       C2238   1.269       .  A
O814        C821   1.269   1_556  A
O815        C822   1.287   1_554  A
O816        C823   1.274       .  A
O817       C1531   1.273   1_455  A
C818       C1177   1.491       .  S
C819       O1515   1.275       .  A
C819       C1213   1.493       .  S
C820       O2224   1.268   1_554  A
C820       C1192   1.485       .  S
C821       C1165   1.485       .  S
C822       O2229   1.266       .  A
C822       C1201   1.476   1_556  S
C823       O1525   1.273       .  A
C823       C1408   1.486       .  S
Zn824       O829   1.998       .  S
Zn824       O833   2.070       .  S
Zn824       O840   2.088       .  S
Zn824      O2244   1.958   1_554  S
Zn825       O830   2.089       .  S
Zn825       O832   2.029       .  S
Zn825       O836   2.110       .  S
Zn825       O828   1.981   1_454  S
Zn826       O831   1.991       .  S
Zn826       O834   1.959       .  S
Zn826       O837   2.021       .  S
Zn826      O2244   1.936       .  S
Zn827       O835   2.038   1_455  S
Zn827       O838   1.956       .  S
Zn827       O839   1.943   1_455  S
Zn827       O828   1.915   1_455  S
O828      Zn2240   1.971   1_556  S
O828      Zn2242   1.922       .  S
O829       C2257   1.270       .  A
O830        C842   1.284   1_454  A
O831        C843   1.270       .  A
O832        C841   1.275   1_455  A
O833        C843   1.277   1_554  A
O834       C2258   1.268       .  A
O835        C844   1.273       .  A
O836        C845   1.286   1_554  A
O837       C2260   1.273       .  A
O838        C845   1.266       .  A
O839       C2262   1.267   1_556  A
O840        C846   1.284   1_554  A
C841       O2245   1.271       .  A
C841       C1336   1.486       .  S
C842       O2250   1.267       .  A
C842       C1204   1.482       .  S
C843       C1132   1.490       .  S
C844       O2253   1.272       .  A
C844       C1156   1.495       .  S
C845       C1141   1.495       .  S
C846       O2255   1.268       .  A
C846       C1189   1.477   1_556  S
Zn847       O856   2.021       .  S
Zn847       O863   2.091       .  S
Zn847       O851   1.959   1_554  S
Zn848       O853   1.970       .  S
Zn848       O855   1.951       .  S
Zn848       O859   1.965       .  S
Zn849       O854   2.003       .  S
Zn849       O857   2.091       .  S
Zn850       O858   1.960       .  S
Zn850       O861   2.033       .  S
Zn850       O862   1.973       .  S
Zn850       O851   1.919       .  S
O852        C864   1.285   1_554  A
O853        C865   1.266       .  A
O855        C864   1.268       .  A
O856        C866   1.274       .  A
O857        C865   1.278   1_554  A
O858        C867   1.270   1_556  A
O860        C867   1.286       .  A
O861        C868   1.273       .  A
O862        C869   1.268       .  A
O863        C869   1.285   1_554  A
C864       C1105   1.489   1_556  S
C865       C1129   1.496       .  S
C866       C1285   1.486       .  S
C867       C1093   1.489       .  S
C868       C1120   1.477       .  S
C869       C1144   1.487       .  S
Zn870       O875   2.018       .  S
Zn870       O879   2.107       .  S
Zn870       O886   2.101       .  S
Zn870       O874   1.974       .  S
Zn871       O876   2.090       .  S
Zn871       O878   2.052       .  S
Zn871       O882   2.095       .  S
Zn871       O874   1.967       .  S
Zn872       O877   1.962       .  S
Zn872       O880   1.946       .  S
Zn872       O883   2.036       .  S
Zn872       O874   1.916   1_556  S
Zn873       O881   1.994       .  S
Zn873       O884   1.964   1_556  S
Zn873       O885   1.956       .  S
Zn873       O874   1.915   1_556  S
O875        C887   1.275       .  A
O876        C888   1.284       .  A
O877        C889   1.269   1_556  A
O878        C887   1.277       .  A
O879        C889   1.287       .  A
O880        C888   1.266   1_556  A
O881        C890   1.269       .  A
O882        C891   1.285       .  A
O883        C890   1.273       .  A
O884        C891   1.269       .  A
O885        C892   1.262   1_556  A
O886        C892   1.277       .  A
C887       C1240   1.490       .  S
C888       C1108   1.469       .  S
C889       C1180   1.484       .  S
C890       C1081   1.484       .  S
C891       C1168   1.481       .  S
C892       C1096   1.502       .  S
Zn893       O898   1.969       .  S
Zn893       O902   1.984       .  S
Zn893       O909   2.005       .  S
Zn893      O1605   1.926   1_455  S
Zn894       O899   2.037       .  S
Zn894      O2317   2.105       .  S
Zn894       O905   2.093       .  S
Zn894       O897   1.957       .  S
Zn895       O900   2.081   1_655  S
Zn895       O903   2.028       .  S
Zn895      O2322   2.092       .  S
Zn895      O1605   1.958       .  S
Zn896       O904   1.975       .  S
Zn896       O907   1.956       .  S
Zn896       O908   2.021       .  S
Zn896       O897   1.923       .  S
O897      Zn1601   1.916   1_565  S
O897      Zn1603   1.965   1_565  S
O899        C911   1.275       .  A
O900        C912   1.284       .  A
O901      Zn2310   2.120   1_455  S
O901        C910   1.284       .  A
O902        C912   1.270       .  A
O903       C1619   1.275       .  A
O905        C914   1.284       .  A
O906      Zn2311   2.096       .  S
O906        C913   1.286       .  A
O907        C914   1.269       .  A
O908        C915   1.271       .  A
O909       C1623   1.272   1_455  A
C910       C1069   1.505       .  S
C911       O1611   1.274   1_565  A
C911       C1216   1.491       .  S
C912       C1045   1.490       .  S
C913       C1057   1.487       .  S
C914       C1036   1.480       .  S
C915       O1617   1.270   1_565  A
C915       C1348   1.476       .  S
Zn916       O921   2.016       .  S
Zn916      O2341   2.102       .  S
Zn916       O932   2.080       .  S
Zn916       O920   1.951       .  S
Zn917       O922   2.071       .  S
Zn917       O924   2.045       .  S
Zn917      O2344   2.055   1_455  S
Zn917      O2336   1.959       .  S
Zn918       O923   1.943       .  S
Zn918       O926   1.946       .  S
Zn918       O929   2.008       .  S
Zn918      O2336   1.896       .  S
Zn919       O927   2.018       .  S
Zn919       O930   1.944       .  S
Zn919       O931   1.969       .  S
Zn919       O920   1.922       .  S
O920      Zn2333   1.965       .  S
O920      Zn2334   1.895       .  S
O921        C933   1.273       .  A
O922        C934   1.283       .  A
O923        C935   1.267       .  A
O924       C2349   1.275   1_455  A
O925      Zn2332   2.076       .  S
O925        C935   1.283       .  A
O926        C934   1.266       .  A
O927        C936   1.271       .  A
O928      Zn2333   2.091       .  S
O928        C937   1.284       .  A
O929       C2352   1.271       .  A
O930        C937   1.267       .  A
O931        C938   1.268       .  A
O932        C938   1.284       .  A
C933       O2340   1.276       .  A
C933       C1153   1.494       .  S
C934        C997   1.482       .  S
C935       C1021   1.478       .  S
C936       O2345   1.268       .  A
C936       C1300   1.483       .  S
C937       C1009   1.483       .  S
C938        C985   1.493       .  S
Zn939       O944   1.932       .  S
Zn939       O948   1.939       .  S
Zn939       O955   1.996       .  S
Zn940       O945   2.068       .  S
Zn940       O947   2.112       .  S
Zn940       O951   2.108       .  S
Zn941       O946   2.113       .  S
Zn941       O949   2.043       .  S
Zn941       O952   2.098       .  S
Zn941       O943   1.968   1_565  S
Zn942       O950   1.935       .  S
Zn942       O953   1.970   1_565  S
Zn942       O954   2.004       .  S
Zn942       O943   1.932   1_565  S
O944        C956   1.265       .  A
O946        C958   1.287       .  A
O947        C956   1.288       .  A
O949        C957   1.276   1_565  A
O950        C959   1.265       .  A
O951        C960   1.284       .  A
O952        C959   1.286       .  A
O954        C961   1.267   1_565  A
C956        C988   1.486       .  S
C957       C1249   1.499   1_545  S
C958       C1060   1.490       .  S
C959       C1000   1.482       .  S
C960       C1072   1.502       .  S
C961       C1117   1.481   1_545  S
Zn962       O967   2.002       .  S
Zn962       O971   1.950       .  S
Zn962       O978   1.968       .  S
Zn962       O966   1.915       .  S
Zn963       O968   1.945       .  S
Zn963       O970   2.005       .  S
Zn963       O974   1.931       .  S
Zn963       O966   1.899       .  S
Zn964       O969   2.087       .  S
Zn964       O972   2.103       .  S
Zn964       O975   2.033       .  S
Zn964       O966   1.968       .  S
Zn965       O973   2.009       .  S
Zn965       O976   2.088       .  S
Zn965       O977   2.084       .  S
Zn965       O966   1.963       .  S
O967        C979   1.270       .  A
O968        C980   1.265       .  A
O969        C981   1.285       .  A
O970        C979   1.270       .  A
O971        C981   1.267       .  A
O972        C980   1.284       .  A
O973        C982   1.274       .  A
O974        C983   1.265       .  A
O975        C982   1.275       .  A
O976        C983   1.283       .  A
O977        C984   1.278       .  A
O978        C984   1.268       .  A
C979       C1228   1.481       .  S
C980       C1048   1.484       .  S
C981       C1012   1.476       .  S
C982       C1084   1.490       .  S
C983       C1024   1.470       .  S
C984       C1033   1.497       .  S
C985        C986   1.403       .  A
C985        C990   1.419       .  A
C986        C987   1.401       .  A
C986        H991   1.083       .  S
C987        C988   1.417       .  A
C987        O992   1.372       .  S
C988        C989   1.402       .  A
C989        C990   1.406       .  A
C989        H993   1.084       .  S
C990        O994   1.371       .  S
O992        H996   0.991       .  S
O994        H995   0.992       .  S
C997        C998   1.400       .  A
C997       C1002   1.418       .  A
C998        C999   1.399       .  A
C998       H1003   1.084       .  S
C999       C1000   1.417       .  A
C999       O1004   1.372       .  S
C1000      C1001   1.399       .  A
C1001      C1002   1.403       .  A
C1001      H1005   1.084       .  S
C1002      O1006   1.373       .  S
O1004      H1008   0.992       .  S
O1006      H1007   0.992       .  S
C1009      C1010   1.414       .  A
C1009      C1014   1.404       .  A
C1010      C1011   1.399       .  A
C1010      H1015   1.084       .  S
C1011      C1012   1.400       .  A
C1011      O1016   1.372       .  S
C1012      C1013   1.412       .  A
C1013      C1014   1.403       .  A
C1013      H1017   1.084       .  S
C1014      O1018   1.371       .  S
O1016      H1020   0.992       .  S
O1018      H1019   0.991       .  S
C1021      C1022   1.415       .  A
C1021      C1026   1.400       .  A
C1022      C1023   1.400       .  A
C1022      H1027   1.084       .  S
C1023      C1024   1.397       .  A
C1023      O1028   1.371       .  S
C1024      C1025   1.412       .  A
C1025      C1026   1.401       .  A
C1025      H1029   1.084       .  S
C1026      O1030   1.372       .  S
O1028      H1032   0.992       .  S
O1030      H1031   0.991       .  S
C1033      C1034   1.410       .  A
C1033      C1038   1.412       .  A
C1034      C1035   1.400       .  A
C1034      H1039   1.083       .  S
C1035      C1036   1.406       .  A
C1035      O1040   1.372       .  S
C1036      C1037   1.408       .  A
C1037      C1038   1.411       .  A
C1037      H1041   1.084       .  S
C1038      O1042   1.371       .  S
O1040      H1044   0.991       .  S
O1042      H1043   0.992       .  S
C1045      C1046   1.416       .  A
C1045      C1050   1.405       .  A
C1046      C1047   1.407       .  A
C1046      H1051   1.084       .  S
C1047      C1048   1.403       .  A
C1047      O1052   1.371       .  S
C1048      C1049   1.411       .  A
C1049      C1050   1.400       .  A
C1049      H1053   1.083       .  S
C1050      O1054   1.372       .  S
O1052      H1056   0.992       .  S
O1054      H1055   0.992       .  S
C1057      C1058   1.399       .  A
C1058      C1059   1.401       .  A
C1058      H1063   1.084       .  S
C1059      O1064   1.372       .  S
C1060      C1061   1.402       .  A
C1061      C1062   1.406       .  A
C1061      H1065   1.083       .  S
C1062      O1066   1.372       .  S
O1064      H1068   0.992       .  S
O1066      H1067   0.992   1_565  S
C1069      C1070   1.415       .  A
C1070      C1071   1.408   1_565  A
C1070      H1075   1.083       .  S
C1071      O1076   1.371       .  S
C1072      C1073   1.412       .  A
C1073      C1074   1.407       .  A
C1073      H1077   1.083       .  S
C1074      O1078   1.371       .  S
O1076      H1080   0.992       .  S
O1078      H1079   0.992       .  S
C1081      C1082   1.404       .  A
C1081      C1086   1.411       .  A
C1082      C1083   1.404       .  A
C1082      H1087   1.083       .  S
C1083      C1084   1.414       .  A
C1083      O1088   1.371       .  S
C1084      C1085   1.407       .  A
C1085      C1086   1.398       .  A
C1085      H1089   1.083       .  S
C1086      O1090   1.372       .  S
O1088      H1092   0.992       .  S
O1090      H1091   0.991       .  S
C1093      C1094   1.402   1_554  A
C1093      C1098   1.413       .  A
C1094      C1095   1.399       .  A
C1094      H1099   1.084       .  S
C1095      C1096   1.419   1_556  A
C1095      O1100   1.372       .  S
C1096      C1097   1.409       .  A
C1097      C1098   1.413       .  A
C1097      H1101   1.083       .  S
C1098      O1102   1.371       .  S
O1100      H1104   0.992       .  S
O1102      H1103   0.992       .  S
C1105      C1106   1.413   1_554  A
C1105      C1110   1.409       .  A
C1106      C1107   1.399       .  A
C1106      H1111   1.084       .  S
C1107      C1108   1.402   1_556  A
C1107      O1112   1.372       .  S
C1108      C1109   1.406       .  A
C1109      C1110   1.405       .  A
C1109      H1113   1.084       .  S
C1110      O1114   1.371       .  S
O1112      H1116   0.992       .  S
O1114      H1115   0.992       .  S
C1117      C1122   1.414       .  A
C1118      C1119   1.393       .  A
C1118      H1123   1.084       .  S
C1119      O1124   1.372       .  S
C1120      C1121   1.404       .  A
C1121      C1122   1.403       .  A
C1121      H1125   1.084       .  S
C1122      O1126   1.372       .  S
O1124      H1128   0.992       .  S
O1126      H1127   0.992       .  S
C1129      C1130   1.410       .  A
C1129      C1134   1.411   1_556  A
C1130      C1131   1.399       .  A
C1130      H1135   1.083       .  S
C1131      C1132   1.406       .  A
C1131      O1136   1.372       .  S
C1132      C1133   1.412   1_556  A
C1133      C1134   1.413       .  A
C1133      H1137   1.083       .  S
C1134      O1138   1.371       .  S
O1136      H1140   0.992       .  S
O1138      H1139   0.993       .  S
C1141      C1142   1.401   1_556  A
C1141      C1146   1.423       .  A
C1142      C1143   1.409       .  A
C1142      H1147   1.083       .  S
C1143      C1144   1.419   1_554  A
C1143      O1148   1.373       .  S
C1144      C1145   1.395       .  A
C1145      C1146   1.401       .  A
C1145      H1149   1.084       .  S
C1146      O1150   1.372       .  S
O1148      H1152   0.992   1_554  S
O1150      H1151   0.992       .  S
C1153      C1154   1.407       .  A
C1153      C2574   1.414       .  A
C1154      C1155   1.404       .  A
C1154      H1159   1.083       .  S
C1155      C2572   1.414       .  A
C1155      O1160   1.371       .  S
C1156      C2571   1.415   1_655  A
C1156      C1157   1.406       .  A
C1157      C1158   1.399       .  A
C1157      H1161   1.083       .  S
C1158      C2569   1.412       .  A
C1158      O1162   1.372       .  S
O1160      H1164   0.992       .  S
O1162      H1163   0.992       .  S
C1165      C1166   1.413       .  A
C1165      C1170   1.404       .  A
C1166      C1167   1.401       .  A
C1166      H1171   1.084       .  S
C1167      C1168   1.402       .  A
C1167      O1172   1.371       .  S
C1168      C1169   1.412       .  A
C1169      C1170   1.404       .  A
C1169      H1173   1.084       .  S
C1170      O1174   1.371       .  S
O1172      H1176   0.991       .  S
O1174      H1175   0.992       .  S
C1177      C1178   1.416       .  A
C1177      C1182   1.404       .  A
C1178      C1179   1.405       .  A
C1178      H1183   1.084       .  S
C1179      C1180   1.401       .  A
C1179      O1184   1.371       .  S
C1180      C1181   1.413       .  A
C1181      C1182   1.405       .  A
C1181      H1185   1.084       .  S
C1182      O1186   1.371       .  S
O1184      H1188   0.992   1_554  S
O1186      H1187   0.992   1_554  S
C1189      C1190   1.408       .  A
C1189      C2610   1.403   1_554  A
C1190      C1191   1.410       .  A
C1190      H1195   1.084       .  S
C1191      C2608   1.411       .  A
C1191      O1196   1.371       .  S
C1192      C2607   1.402   1_655  A
C1192      C1193   1.418       .  A
C1193      C1194   1.403       .  A
C1193      H1197   1.083       .  S
C1194      C2605   1.399       .  A
C1194      O1198   1.371       .  S
O1196      H1200   0.993       .  S
O1198      H1199   0.991       .  S
C1201      C2618   1.411       .  A
C1201      C1206   1.399   1_554  A
C1202      C2617   1.408   1_554  A
C1202      C1203   1.411       .  A
C1202      H1207   1.083       .  S
C1203      C1204   1.412   1_554  A
C1203      O1208   1.371       .  S
C1204      C2621   1.404       .  A
C1205      C2620   1.419       .  A
C1205      C1206   1.403       .  A
C1205      H1209   1.083       .  S
C1206      O1210   1.371       .  S
O1208      H1212   0.993       .  S
O1210      H1211   0.992       .  S
C1213      C1214   1.408   1_545  A
C1213      C1926   1.412       .  A
C1214      C1215   1.402       .  A
C1214      H1219   1.083       .  S
C1215      C1216   1.410       .  A
C1215      O1220   1.372       .  S
C1216      C1925   1.408   1_565  A
C1217      C1924   1.407   1_455  A
C1217      C1218   1.405       .  A
C1217      H1221   1.084       .  S
C1218      C1921   1.413   1_455  A
C1218      O1222   1.371       .  S
O1220      H1224   0.992       .  S
O1222      H1223   0.992   1_455  S
C1225      C1226   1.405       .  A
C1225      C1230   1.409       .  A
C1226      C1227   1.397       .  A
C1226      H1231   1.084       .  S
C1227      C1228   1.411       .  A
C1227      O1232   1.372       .  S
C1228      C1229   1.406       .  A
C1229      C1230   1.399       .  A
C1229      H1233   1.083       .  S
C1230      O1234   1.371       .  S
O1232      H1236   0.992       .  S
O1234      H1235   0.992       .  S
C1237      C1238   1.408       .  A
C1237      C1242   1.411       .  A
C1238      C1239   1.407       .  A
C1238      H1243   1.084       .  S
C1239      C1240   1.412       .  A
C1239      O1244   1.372       .  S
C1240      C1241   1.405       .  A
C1241      C1242   1.400       .  A
C1241      H1245   1.084       .  S
C1242      O1246   1.372       .  S
O1244      H1248   0.992       .  S
O1246      H1247   0.992       .  S
C1249      C1250   1.407       .  A
C1250      C1251   1.407       .  A
C1250      H1255   1.084       .  S
C1251      C1252   1.415       .  A
C1251      O1256   1.372       .  S
C1253      C1254   1.411       .  A
C1253      H1257   1.083       .  S
C1254      O1258   1.372       .  S
O1256      H1260   0.992       .  S
O1258      H1259   0.992       .  S
C1261      C1262   1.407       .  A
C1261      C1266   1.408       .  A
C1262      C1263   1.398       .  A
C1262      H1267   1.084       .  S
C1263      C1264   1.410       .  A
C1263      O1268   1.371       .  S
C1264      C1265   1.414       .  A
C1265      C1266   1.409       .  A
C1265      H1269   1.083       .  S
C1266      O1270   1.372       .  S
O1268      H1272   0.991       .  S
O1270      H1271   0.992       .  S
C1273      C1274   1.398       .  A
C1273      C1278   1.415       .  A
C1274      C1275   1.401       .  A
C1274      H1279   1.084       .  S
C1275      C1276   1.417       .  A
C1275      O1280   1.373       .  S
C1276      C1277   1.402       .  A
C1277      C1278   1.403       .  A
C1277      H1281   1.083       .  S
C1278      O1282   1.372       .  S
O1280      H1284   0.993       .  S
O1282      H1283   0.993       .  S
C1285      C1290   1.414       .  A
C1286      C1287   1.400       .  A
C1286      H1291   1.084       .  S
C1287      O1292   1.371       .  S
C1288      C1289   1.404       .  A
C1289      C1290   1.400       .  A
C1289      H1293   1.084       .  S
C1290      O1294   1.372       .  S
O1292      H1296   0.992       .  S
O1294      H1295   0.992       .  S
C1297      C2714   1.399       .  A
C1297      C1302   1.408       .  A
C1298      C2713   1.404       .  A
C1298      C1299   1.396       .  A
C1298      H1303   1.084       .  S
C1299      C2716   1.411       .  A
C1299      O1304   1.372       .  S
C1300      C2715   1.414       .  A
C1300      C1301   1.409       .  A
C1301      C1302   1.404       .  A
C1301      H1305   1.083       .  S
C1302      O1306   1.372       .  S
O1304      H1308   0.991       .  S
O1306      H1307   0.992       .  S
C1309      C1310   1.412       .  A
C1309      C1314   1.400       .  A
C1310      C1311   1.403       .  A
C1310      H1315   1.084       .  S
C1311      C1312   1.405       .  A
C1311      O1316   1.371       .  S
C1312      C1313   1.418       .  A
C1313      C1314   1.405       .  A
C1313      H1317   1.083       .  S
C1314      O1318   1.371       .  S
O1316      H1320   0.992       .  S
O1318      H1319   0.992       .  S
C1321      C1322   1.407       .  A
C1321      C1326   1.416       .  A
C1322      C1323   1.397       .  A
C1322      H1327   1.083       .  S
C1323      C1324   1.410       .  A
C1323      O1328   1.373       .  S
C1324      C1325   1.408       .  A
C1325      C1326   1.415       .  A
C1325      H1329   1.083       .  S
C1326      O1330   1.371       .  S
O1328      H1332   0.992       .  S
O1330      H1331   0.992       .  S
C1333      C2750   1.403       .  A
C1333      C1338   1.411   1_655  A
C1334      C2749   1.403       .  A
C1334      C1335   1.400       .  A
C1334      H1339   1.083       .  S
C1335      C2752   1.411       .  A
C1335      O1340   1.372       .  S
C1336      C2751   1.415       .  A
C1336      C1337   1.404   1_655  A
C1337      C1338   1.399       .  A
C1337      H1341   1.083       .  S
C1338      O1342   1.372       .  S
O1340      H1344   0.992       .  S
O1342      H1343   0.991       .  S
C1345      C2147   1.473       .  S
C1345      C1346   1.403   1_545  A
C1345      C2058   1.408       .  A
C1346      C1347   1.401       .  A
C1346      H1351   1.084       .  S
C1347      C1348   1.410       .  A
C1347      O1352   1.372       .  S
C1348      C2057   1.404   1_565  A
C1349      C2056   1.403   1_455  A
C1349      C1350   1.396       .  A
C1349      H1353   1.084       .  S
C1350      C2053   1.407       .  A
C1350      O1354   1.372       .  S
O1352      H1356   0.992       .  S
O1354      H1355   0.992       .  S
C1357      C2774   1.416       .  A
C1357      C1362   1.402       .  A
C1358      C2773   1.417       .  A
C1358      C1359   1.399       .  A
C1358      H1363   1.083       .  S
C1359      C1360   1.399       .  A
C1359      O1364   1.372       .  S
C1360      C2777   1.408       .  A
C1361      C2776   1.412       .  A
C1361      C1362   1.401       .  A
C1361      H1365   1.084       .  S
C1362      O1366   1.372       .  S
O1364      H1368   0.992       .  S
O1366      H1367   0.992       .  S
C1369      C2786   1.412       .  A
C1369      C1374   1.409       .  A
C1370      C2785   1.417       .  A
C1370      C1371   1.404       .  A
C1370      H1375   1.084       .  S
C1371      C1372   1.399       .  A
C1371      O1376   1.371       .  S
C1372      C2789   1.410   1_455  A
C1373      C2788   1.406       .  A
C1373      C1374   1.405       .  A
C1373      H1377   1.084       .  S
C1374      O1378   1.371       .  S
O1376      H1380   0.992       .  S
O1378      H1379   0.993       .  S
C1381      C1382   1.400       .  A
C1382      C1383   1.407       .  A
C1382      H1387   1.083       .  S
C1383      O1388   1.372       .  S
C1384      C1385   1.400       .  A
C1385      C1386   1.402       .  A
C1385      H1389   1.083       .  S
C1386      O1390   1.373       .  S
O1388      H1392   0.992       .  S
O1390      H1391   0.992       .  S
C1393      C1398   1.416       .  A
C1394      C1395   1.407   1_545  A
C1394      H1399   1.083       .  S
C1395      C1396   1.415       .  A
C1395      O1400   1.371       .  S
C1397      C1398   1.411       .  A
C1397      H1401   1.083       .  S
C1398      O1402   1.371       .  S
O1400      H1404   0.992       .  S
O1402      H1403   0.992       .  S
C1405      C2114   1.407       .  A
C1405      C1410   1.414   1_545  A
C1406      C2113   1.408   1_455  A
C1406      C1407   1.404       .  A
C1406      H1411   1.083       .  S
C1407      C2116   1.408   1_455  A
C1407      O1412   1.372       .  S
C1408      C2115   1.410       .  A
C1408      C1409   1.404   1_545  A
C1409      C1410   1.403       .  A
C1409      H1413   1.084       .  S
C1410      O1414   1.372       .  S
O1412      H1416   0.992       .  S
O1414      H1415   0.992       .  S
Zn1417     O2130   1.958       .  S
Zn1417     O1433   2.031   1_655  S
Zn1418     O1423   2.028       .  S
Zn1418     O1425   2.133       .  S
Zn1418     O1429   2.116       .  S
Zn1419     O1424   2.077       .  S
Zn1419     O1427   2.034       .  S
Zn1419     O1430   2.089       .  S
Zn1419     O1421   1.947       .  S
Zn1420     O2136   1.980       .  S
Zn1420     O1432   1.971       .  S
Zn1420     O2129   1.915       .  S
O1421     Zn2128   1.913   1_545  S
O1422     Zn2125   1.945       .  S
O1422      C1434   1.264       .  A
O1423      C2143   1.274   1_655  A
O1424      C1436   1.283       .  A
O1425      C1434   1.290       .  A
O1426      C1436   1.268       .  A
O1428     Zn2128   1.990   1_545  S
O1428      C1437   1.269       .  A
O1429      C1438   1.288   1_655  A
O1430      C1437   1.283       .  A
O1431      C1438   1.264       .  A
O1432      C1439   1.267       .  A
C1434      C2092   1.505       .  S
C1435      O2131   1.273   1_445  A
C1435      C2821   1.484       .  S
C1436      C2080   1.470       .  S
C1437      C2101   1.496       .  S
C1438      C2065   1.495       .  S
Zn1440     O1445   1.976       .  S
Zn1440     O1456   1.979       .  S
Zn1441     O1446   1.991       .  S
Zn1441     O1448   2.068       .  S
Zn1441     O1452   2.072       .  S
Zn1442     O1447   2.087       .  S
Zn1442     O1450   2.044       .  S
Zn1442     O1453   2.103       .  S
Zn1442     O1444   1.963   1_655  S
Zn1443     O1451   1.966   1_455  S
Zn1443     O1455   2.029       .  S
Zn1443     O1444   1.909       .  S
O1445      C1457   1.267       .  A
O1446      C1458   1.271       .  A
O1447      C1459   1.285   1_655  A
O1448      C1457   1.276       .  A
O1449      C1459   1.267       .  A
O1451      C1460   1.267       .  A
O1452      C1461   1.281       .  A
O1453      C1460   1.285       .  A
O1454      C1461   1.267       .  A
O1455      C1462   1.273       .  A
C1457      C2029   1.486       .  S
C1458      C2041   1.481       .  S
C1459      C2077   1.476       .  S
C1460      C2017   1.483       .  S
C1461      C2068   1.467       .  S
C1462      C2005   1.489       .  S
Zn1463     O1468   2.112       .  S
Zn1463     O1472   2.113       .  S
Zn1463     O1479   2.050       .  S
Zn1463     O1467   1.967       .  S
Zn1464     O1469   2.006       .  S
Zn1464     O1471   1.938       .  S
Zn1464     O2183   1.945       .  S
Zn1464     O1467   1.914       .  S
Zn1465     O2178   1.981   1_545  S
Zn1465     O1473   2.012       .  S
Zn1465     O1476   1.947       .  S
Zn1465     O2175   1.946   1_545  S
Zn1466     O1474   2.104       .  S
Zn1466     O1477   2.138       .  S
Zn1466     O1478   2.057       .  S
Zn1466     O2175   1.970   1_545  S
O1467     Zn2173   1.944       .  S
O1467     Zn2174   1.972       .  S
O1468      C1480   1.287       .  A
O1469      C1481   1.268       .  A
O1470     Zn2173   1.973       .  S
O1470      C1482   1.266       .  A
O1471      C1480   1.267       .  A
O1472      C1482   1.284       .  A
O1473      C2189   1.269   1_545  A
O1474      C1483   1.289       .  A
O1475     Zn2172   1.939       .  S
O1475      C1484   1.263   1_565  A
O1476      C1483   1.266       .  A
O1477      C1484   1.290       .  A
O1478      C2193   1.278   1_545  A
O1479      C1485   1.277       .  A
C1480      C1969   1.487       .  S
C1481      O2181   1.266       .  A
C1481      C1996   1.478       .  S
C1482      C2104   1.501       .  S
C1483      C1981   1.485       .  S
C1484      C2089   1.498       .  S
C1485      O2186   1.279       .  A
C1485      C1960   1.504       .  S
Zn1486     O1491   1.934       .  S
Zn1486     O1495   1.973       .  S
Zn1486     O1502   1.993       .  S
Zn1486     O1490   1.923       .  S
Zn1487     O1492   2.046       .  S
Zn1487     O1494   2.122       .  S
Zn1487     O1498   2.113       .  S
Zn1487     O1490   1.983       .  S
Zn1488     O1493   2.072       .  S
Zn1488     O1496   2.018       .  S
Zn1488     O1499   2.093       .  S
Zn1488     O1490   1.952       .  S
Zn1489     O1497   1.972       .  S
Zn1489     O1500   1.933       .  S
Zn1489     O1501   2.030       .  S
Zn1489     O1490   1.907       .  S
O1491      C1503   1.264       .  A
O1492      C1504   1.276       .  A
O1493      C1505   1.280       .  A
O1494      C1503   1.286       .  A
O1495      C1505   1.268       .  A
O1496      C1504   1.274       .  A
O1497      C1506   1.270       .  A
O1498      C1507   1.288       .  A
O1499      C1506   1.285       .  A
O1500      C1507   1.266       .  A
O1501      C1508   1.273       .  A
O1502      C1508   1.269       .  A
C1503      C2032   1.498       .  S
C1504      C1945   1.492       .  S
C1505      C1972   1.497       .  S
C1506      C2020   1.497       .  S
C1507      C1984   1.486       .  S
C1508      C1933   1.484       .  S
Zn1509     O1514   2.096       .  S
Zn1509     O2226   2.093   1_545  S
Zn1509     O1525   2.024       .  S
Zn1510     O1515   2.048       .  S
Zn1510     O1517   1.965       .  S
Zn1510     O1521   1.955       .  S
Zn1511     O1516   1.935       .  S
Zn1511     O1519   2.015       .  S
Zn1511     O1522   1.979       .  S
Zn1511     O1513   1.927       .  S
Zn1512     O1520   2.074       .  S
Zn1512     O2231   2.084       .  S
Zn1512     O1524   2.021       .  S
Zn1512     O1513   1.969   1_554  S
O1514      C1526   1.285       .  A
O1517      C1526   1.269   1_556  A
O1518     Zn2217   2.092       .  S
O1518      C1528   1.277       .  A
O1519      C1527   1.271       .  A
O1520      C1529   1.277       .  A
O1522      C1529   1.269   1_556  A
O1523     Zn2220   2.081       .  S
O1523      C1530   1.284       .  A
O1524      C1531   1.273       .  A
C1526      C1885   1.494       .  S
C1527      C1921   1.498       .  S
C1528      C1900   1.503       .  S
C1529      C1873   1.500       .  S
C1530      C1909   1.472       .  S
C1531      C2116   1.482       .  S
Zn1532     O1537   2.009       .  S
Zn1532     O1541   2.056       .  S
Zn1532     O1548   2.054       .  S
Zn1533     O1538   2.082       .  S
Zn1533     O1540   2.014       .  S
Zn1533     O1544   2.099       .  S
Zn1533     O1536   1.974   1_554  S
Zn1534     O1539   1.988       .  S
Zn1534     O1542   1.945       .  S
Zn1534     O1545   2.005       .  S
Zn1535     O1543   2.015       .  S
Zn1535     O1546   1.957       .  S
Zn1535     O1547   1.941       .  S
Zn1535     O1536   1.909       .  S
O1538      C1550   1.284   1_554  A
O1539      C1551   1.270       .  A
O1540      C1549   1.272       .  A
O1541      C1551   1.276   1_554  A
O1543      C1552   1.271       .  A
O1544      C1553   1.284   1_554  A
O1546      C1553   1.265       .  A
O1548      C1554   1.280   1_554  A
C1549      C2044   1.476       .  S
C1550      C1912   1.484   1_556  S
C1551      C1840   1.497       .  S
C1552      C1864   1.494       .  S
C1553      C1849   1.495   1_556  S
C1554      C1897   1.461   1_556  S
Zn1555     O2268   2.100       .  S
Zn1555     O1564   2.017       .  S
Zn1555     O1571   2.105       .  S
Zn1555     O1559   1.957       .  S
Zn1556     O1561   1.967       .  S
Zn1556     O1563   1.945       .  S
Zn1556     O1567   1.970       .  S
Zn1556     O2267   1.900   1_545  S
Zn1557     O1562   2.006       .  S
Zn1557     O1565   2.084   1_565  S
Zn1557     O2276   2.064       .  S
Zn1557     O2267   1.960   1_554  S
Zn1558     O1566   1.959       .  S
Zn1558     O1569   2.046       .  S
Zn1558     O1570   1.969       .  S
Zn1558     O1559   1.912   1_556  S
O1559     Zn2264   1.906   1_554  S
O1559     Zn2265   1.963       .  S
O1560     Zn2263   2.098   1_545  S
O1560      C1572   1.287       .  A
O1561      C1573   1.265       .  A
O1562      C2282   1.272       .  A
O1563      C1572   1.268   1_556  A
O1564      C1574   1.274       .  A
O1565      C1573   1.277   1_554  A
O1566      C1575   1.270   1_556  A
O1567      C2284   1.267   1_545  A
O1568     Zn2265   2.079       .  S
O1568      C1575   1.284       .  A
O1569      C1576   1.275       .  A
O1570      C1577   1.269   1_556  A
O1571      C1577   1.287       .  A
C1572      C1813   1.493       .  S
C1573      C1837   1.497       .  S
C1574      O2270   1.272       .  A
C1574      C1993   1.486       .  S
C1575      C1801   1.474       .  S
C1576      O2275   1.267       .  A
C1576      C1828   1.478       .  S
C1577      C1852   1.486       .  S
Zn1578     O1583   2.044       .  S
Zn1578     O1587   2.106       .  S
Zn1578     O1594   2.108       .  S
Zn1578     O1582   1.968       .  S
Zn1579     O1584   2.083       .  S
Zn1579     O1586   2.022       .  S
Zn1579     O1590   2.085       .  S
Zn1579     O1582   1.968       .  S
Zn1580     O1585   1.958       .  S
Zn1580     O1588   1.949       .  S
Zn1580     O1591   2.050       .  S
Zn1580     O1582   1.915   1_556  S
Zn1581     O1589   1.986       .  S
Zn1581     O1592   1.971       .  S
Zn1581     O1593   1.943       .  S
Zn1581     O1582   1.911   1_556  S
O1583      C1595   1.276       .  A
O1584      C1596   1.284       .  A
O1585      C1597   1.267   1_556  A
O1586      C1595   1.274       .  A
O1587      C1597   1.287       .  A
O1588      C1596   1.268   1_556  A
O1589      C1598   1.268       .  A
O1590      C1599   1.277       .  A
O1591      C1598   1.274       .  A
O1592      C1599   1.266   1_556  A
O1593      C1600   1.266   1_556  A
O1594      C1600   1.287       .  A
C1595      C1948   1.487       .  S
C1596      C1816   1.467       .  S
C1597      C1888   1.483       .  S
C1598      C1789   1.490       .  S
C1599      C1876   1.500       .  S
C1600      C1804   1.485       .  S
Zn1601     O1606   1.976   1_545  S
Zn1601     O1610   1.949       .  S
Zn1601     O1617   2.004       .  S
Zn1602     O1607   2.043       .  S
Zn1602     O1613   2.102       .  S
Zn1602     O1605   1.968       .  S
Zn1603     O1608   2.087       .  S
Zn1603     O1611   2.025       .  S
Zn1604     O1612   1.956       .  S
Zn1604     O1615   1.962       .  S
Zn1604     O1616   2.011       .  S
Zn1604     O1605   1.921       .  S
O1606      C2326   1.269       .  A
O1607      C1619   1.276       .  A
O1608      C1620   1.284       .  A
O1609      C1618   1.285       .  A
O1610      C1620   1.267       .  A
O1612      C2329   1.266       .  A
O1613      C1622   1.285       .  A
O1614      C1621   1.288       .  A
O1615      C1622   1.270       .  A
O1616      C1623   1.270       .  A
C1618      O2314   1.267       .  A
C1618      C1777   1.508       .  S
C1619      C1924   1.492       .  S
C1620      C1753   1.487       .  S
C1621      O2320   1.264   1_545  A
C1621      C1765   1.490       .  S
C1622      C1744   1.488       .  S
C1623      C2056   1.479       .  S
Zn1624     O1629   2.012       .  S
Zn1624     O1640   2.065   1_455  S
Zn1624     O1628   1.948       .  S
Zn1625     O1630   2.061       .  S
Zn1625     O1632   2.030       .  S
Zn1626     O1631   1.933       .  S
Zn1626     O1634   1.964       .  S
Zn1626     O1637   2.009       .  S
Zn1627     O1635   2.019       .  S
Zn1627     O1638   1.950       .  S
Zn1627     O1639   1.980       .  S
Zn1627     O1628   1.916   1_655  S
O1629      C1641   1.272       .  A
O1630      C1642   1.281       .  A
O1631      C1643   1.266       .  A
O1633      C1643   1.287       .  A
O1634      C1642   1.268       .  A
O1635      C1644   1.272   1_655  A
O1636      C1645   1.282       .  A
O1638      C1645   1.267       .  A
O1639      C1646   1.269       .  A
O1640      C1646   1.281       .  A
C1641      C1861   1.491       .  S
C1642      C1705   1.482       .  S
C1643      C1729   1.497       .  S
C1644      C2008   1.478       .  S
C1645      C1717   1.480       .  S
C1646      C1693   1.490       .  S
Zn1647     O1652   1.938       .  S
Zn1647     O1656   1.943       .  S
Zn1647     O1663   1.994       .  S
Zn1647     O2359   1.920       .  S
Zn1648     O1653   2.055       .  S
Zn1648     O1655   2.106       .  S
Zn1648     O1659   2.107       .  S
Zn1648     O2359   1.963       .  S
Zn1649     O1654   2.112       .  S
Zn1649     O1657   2.045       .  S
Zn1649     O1660   2.094       .  S
Zn1649     O1651   1.969       .  S
Zn1650     O1658   1.928       .  S
Zn1650     O1661   1.978       .  S
Zn1650     O1662   1.999       .  S
Zn1650     O1651   1.933       .  S
O1651     Zn2355   1.920       .  S
O1651     Zn2356   1.959       .  S
O1652      C1664   1.266       .  A
O1653      C2373   1.278       .  A
O1654      C1666   1.287       .  A
O1655      C1664   1.286       .  A
O1656      C2374   1.265   1_545  A
O1657      C1665   1.276       .  A
O1658      C1667   1.264       .  A
O1659      C1668   1.285       .  A
O1660      C1667   1.286       .  A
O1661      C2376   1.269       .  A
O1662      C1669   1.266       .  A
O1663      C2377   1.267       .  A
C1664      C1696   1.484       .  S
C1665      O2361   1.278       .  A
C1665      C1957   1.500       .  S
C1666      O2364   1.266       .  A
C1666      C1768   1.491       .  S
C1667      C1708   1.475       .  S
C1668      O2369   1.268       .  A
C1668      C1780   1.503       .  S
C1669      O2371   1.269       .  A
C1669      C1825   1.478       .  S
Zn1670     O1675   1.995       .  S
Zn1670     O1679   1.937       .  S
Zn1670     O1686   1.968       .  S
Zn1670     O1674   1.906       .  S
Zn1671     O1676   1.943       .  S
Zn1671     O1678   2.022       .  S
Zn1671     O1682   1.940       .  S
Zn1671     O1674   1.902       .  S
Zn1672     O1677   2.092       .  S
Zn1672     O1680   2.096       .  S
Zn1672     O1683   2.036       .  S
Zn1672     O1674   1.968       .  S
Zn1673     O1681   2.013       .  S
Zn1673     O1684   2.089       .  S
Zn1673     O1685   2.089       .  S
Zn1673     O1674   1.953       .  S
O1675      C1687   1.269       .  A
O1676      C1688   1.266       .  A
O1677      C1689   1.285       .  A
O1678      C1687   1.272       .  A
O1679      C1689   1.266       .  A
O1680      C1688   1.285       .  A
O1681      C1690   1.275       .  A
O1682      C1691   1.266       .  A
O1683      C1690   1.275       .  A
O1684      C1691   1.284       .  A
O1685      C1692   1.279       .  A
O1686      C1692   1.267       .  A
C1687      C1936   1.481       .  S
C1688      C1756   1.479       .  S
C1689      C1720   1.474       .  S
C1690      C1792   1.491       .  S
C1691      C1732   1.469       .  S
C1692      C1741   1.499       .  S
C1693      C1694   1.404       .  A
C1693      C1698   1.416       .  A
C1694      C1695   1.401       .  A
C1694      H1699   1.084       .  S
C1695      C1696   1.414       .  A
C1695      O1700   1.372       .  S
C1696      C1697   1.403       .  A
C1697      C1698   1.406       .  A
C1697      H1701   1.084       .  S
C1698      O1702   1.371       .  S
O1700      H1704   0.992       .  S
O1702      H1703   0.992       .  S
C1705      C1706   1.402       .  A
C1705      C1710   1.416       .  A
C1706      C1707   1.399       .  A
C1706      H1711   1.084       .  S
C1707      C1708   1.414       .  A
C1707      O1712   1.373       .  S
C1708      C1709   1.399       .  A
C1709      C1710   1.402       .  A
C1709      H1713   1.084       .  S
C1710      O1714   1.372       .  S
O1712      H1716   0.992       .  S
O1714      H1715   0.992       .  S
C1717      C1718   1.414       .  A
C1717      C1722   1.403       .  A
C1718      C1719   1.400       .  A
C1718      H1723   1.084       .  S
C1719      C1720   1.400       .  A
C1719      O1724   1.372       .  S
C1720      C1721   1.412       .  A
C1721      C1722   1.401       .  A
C1721      H1725   1.084       .  S
C1722      O1726   1.372       .  S
O1724      H1728   0.992       .  S
O1726      H1727   0.992       .  S
C1729      C1730   1.416       .  A
C1729      C1734   1.410       .  A
C1730      C1731   1.396       .  A
C1730      H1735   1.083       .  S
C1731      C1732   1.399       .  A
C1731      O1736   1.372       .  S
C1732      C1733   1.410       .  A
C1733      C1734   1.410       .  A
C1733      H1737   1.084       .  S
C1734      O1738   1.371       .  S
O1736      H1740   0.992       .  S
O1738      H1739   0.991       .  S
C1741      C1742   1.409       .  A
C1741      C1746   1.415       .  A
C1742      C1743   1.398       .  A
C1742      H1747   1.083       .  S
C1743      C1744   1.409       .  A
C1743      O1748   1.372       .  S
C1744      C1745   1.408       .  A
C1745      C1746   1.412       .  A
C1745      H1749   1.083       .  S
C1746      O1750   1.371       .  S
O1748      H1752   0.991       .  S
O1750      H1751   0.992       .  S
C1753      C1754   1.416       .  A
C1753      C1758   1.404       .  A
C1754      C1755   1.401       .  A
C1754      H1759   1.084       .  S
C1755      C1756   1.400       .  A
C1755      O1760   1.371       .  S
C1756      C1757   1.412       .  A
C1757      C1758   1.402       .  A
C1757      H1761   1.084       .  S
C1758      O1762   1.372       .  S
O1760      H1764   0.992       .  S
O1762      H1763   0.992       .  S
C1765      C1766   1.400       .  A
C1765      C2478   1.419   1_545  A
C1766      C1767   1.405       .  A
C1766      H1771   1.084       .  S
C1767      C2476   1.419   1_545  A
C1767      O1772   1.372       .  S
C1768      C2475   1.419       .  A
C1768      C1769   1.402       .  A
C1769      C1770   1.406       .  A
C1769      H1773   1.083       .  S
C1770      C2473   1.419       .  A
C1770      O1774   1.372       .  S
O1772      H1776   0.992   1_545  S
O1774      H1775   0.992       .  S
C1777      C1778   1.416       .  A
C1777      C2490   1.410       .  A
C1778      C1779   1.410       .  A
C1778      H1783   1.083       .  S
C1779      C2488   1.410       .  A
C1779      O1784   1.371       .  S
C1780      C2487   1.410       .  A
C1780      C1781   1.414       .  A
C1781      C1782   1.407   1_545  A
C1781      H1785   1.083       .  S
C1782      C2485   1.410       .  A
C1782      O1786   1.371       .  S
O1784      H1788   0.992       .  S
O1786      H1787   0.992       .  S
C1789      C1790   1.407       .  A
C1789      C1794   1.413       .  A
C1790      C1791   1.407       .  A
C1790      H1795   1.083       .  S
C1791      C1792   1.414       .  A
C1791      O1796   1.371       .  S
C1792      C1793   1.404       .  A
C1793      C1794   1.397       .  A
C1793      H1797   1.083       .  S
C1794      O1798   1.372       .  S
O1796      H1800   0.992       .  S
O1798      H1799   0.991       .  S
C1801      C1802   1.399   1_554  A
C1801      C1806   1.412       .  A
C1802      C1803   1.396       .  A
C1802      H1807   1.084       .  S
C1803      C1804   1.415   1_556  A
C1803      O1808   1.373       .  S
C1804      C1805   1.405       .  A
C1805      C1806   1.410       .  A
C1805      H1809   1.083       .  S
C1806      O1810   1.372       .  S
O1808      H1812   0.992       .  S
O1810      H1811   0.992       .  S
C1813      C1814   1.416   1_554  A
C1813      C1818   1.409       .  A
C1814      C1815   1.399   1_556  A
C1814      H1819   1.083       .  S
C1815      C1816   1.400       .  A
C1815      O1820   1.372   1_554  S
C1816      C1817   1.408       .  A
C1817      C1818   1.405       .  A
C1817      H1821   1.084       .  S
C1818      O1822   1.371       .  S
O1820      H1824   0.992       .  S
O1822      H1823   0.992       .  S
C1825      C2534   1.401       .  A
C1825      C1830   1.413       .  A
C1826      C2533   1.402       .  A
C1826      C1827   1.393       .  A
C1826      H1831   1.084       .  S
C1827      C2536   1.411   1_545  A
C1827      O1832   1.372       .  S
C1828      C2535   1.412       .  A
C1828      C1829   1.403       .  A
C1829      C1830   1.403       .  A
C1829      H1833   1.083       .  S
C1830      O1834   1.372       .  S
O1832      H1836   0.992       .  S
O1834      H1835   0.992       .  S
C1837      C1838   1.408       .  A
C1837      C1842   1.412   1_556  A
C1838      C1839   1.400       .  A
C1838      H1843   1.083       .  S
C1839      C1840   1.414       .  A
C1839      O1844   1.372       .  S
C1840      C1841   1.410   1_556  A
C1841      C1842   1.409       .  A
C1841      H1845   1.083       .  S
C1842      O1846   1.371       .  S
O1844      H1848   0.992       .  S
O1846      H1847   0.993       .  S
C1849      C1850   1.401       .  A
C1849      C1854   1.424   1_554  A
C1850      C1851   1.406       .  A
C1850      H1855   1.083       .  S
C1851      C1852   1.418       .  A
C1851      O1856   1.373       .  S
C1852      C1853   1.396   1_554  A
C1853      C1854   1.404       .  A
C1853      H1857   1.084       .  S
C1854      O1858   1.373       .  S
O1856      H1860   0.992       .  S
O1858      H1859   0.992       .  S
C1861      C1862   1.407       .  A
C1862      C1863   1.404       .  A
C1862      H1867   1.083       .  S
C1863      O1868   1.371       .  S
C1864      C1865   1.407       .  A
C1865      C1866   1.405       .  A
C1865      H1869   1.083       .  S
C1866      O1870   1.371       .  S
O1868      H1872   0.992   1_455  S
O1870      H1871   0.992       .  S
C1873      C1874   1.406   1_554  A
C1873      C1878   1.416       .  A
C1874      C1875   1.399       .  A
C1874      H1879   1.083       .  S
C1875      C1876   1.416   1_556  A
C1875      O1880   1.372       .  S
C1876      C1877   1.409       .  A
C1877      C1878   1.412       .  A
C1877      H1881   1.083       .  S
C1878      O1882   1.371       .  S
O1880      H1884   0.991       .  S
O1882      H1883   0.992       .  S
C1885      C1886   1.417   1_554  A
C1885      C1890   1.406       .  A
C1886      C1887   1.403   1_556  A
C1886      H1891   1.084       .  S
C1887      C1888   1.400       .  A
C1887      O1892   1.372   1_554  S
C1888      C1889   1.412       .  A
C1889      C1890   1.406       .  A
C1889      H1893   1.084       .  S
C1890      O1894   1.371       .  S
O1892      H1896   0.992       .  S
O1894      H1895   0.993       .  S
C1897      C1898   1.407       .  A
C1898      C1899   1.402       .  A
C1898      H1903   1.084   1_655  S
C1899      O1904   1.371   1_655  S
C1900      C1901   1.408   1_554  A
C1901      C1902   1.398       .  A
C1901      H1905   1.083       .  S
C1902      O1906   1.372       .  S
O1904      H1908   0.992       .  S
O1906      H1907   0.991       .  S
C1909      C1914   1.402   1_554  A
C1910      C1911   1.400       .  A
C1910      H1915   1.084       .  S
C1911      C1912   1.404       .  A
C1911      O1916   1.371       .  S
C1913      C1914   1.395       .  A
C1913      H1917   1.083       .  S
C1914      O1918   1.373       .  S
O1916      H1920   0.993       .  S
O1918      H1919   0.993       .  S
C1921      C1922   1.410       .  A
C1922      C1923   1.405       .  A
C1922      H1927   1.083       .  S
C1923      C1924   1.410       .  A
C1923      O1928   1.372       .  S
C1925      C1926   1.406       .  A
C1925      H1929   1.083       .  S
C1926      O1930   1.371       .  S
O1928      H1932   0.992       .  S
O1930      H1931   0.992       .  S
C1933      C1934   1.407       .  A
C1933      C1938   1.410       .  A
C1934      C1935   1.399       .  A
C1934      H1939   1.084       .  S
C1935      C1936   1.409       .  A
C1935      O1940   1.372       .  S
C1936      C1937   1.406       .  A
C1937      C1938   1.400       .  A
C1937      H1941   1.084       .  S
C1938      O1942   1.371       .  S
O1940      H1944   0.992       .  S
O1942      H1943   0.992       .  S
C1945      C1946   1.407       .  A
C1945      C1950   1.413       .  A
C1946      C1947   1.401       .  A
C1946      H1951   1.083       .  S
C1947      C1948   1.410       .  A
C1947      O1952   1.372       .  S
C1948      C1949   1.406       .  A
C1949      C1950   1.406       .  A
C1949      H1953   1.083       .  S
C1950      O1954   1.371       .  S
O1952      H1956   0.992       .  S
O1954      H1955   0.992       .  S
C1957      C1958   1.407       .  A
C1957      C2670   1.413       .  A
C1958      C1959   1.408       .  A
C1958      H1963   1.084       .  S
C1959      C1960   1.415       .  A
C1959      O1964   1.371       .  S
C1960      C2669   1.409       .  A
C1961      C2668   1.407   1_545  A
C1961      C1962   1.408       .  A
C1961      H1965   1.083       .  S
C1962      C2665   1.415       .  A
C1962      O1966   1.371       .  S
O1964      H1968   0.992       .  S
O1966      H1967   0.992       .  S
C1969      C1970   1.409       .  A
C1969      C1974   1.409       .  A
C1970      C1971   1.401       .  A
C1970      H1975   1.084       .  S
C1971      C1972   1.412       .  A
C1971      O1976   1.371       .  S
C1972      C1973   1.412       .  A
C1973      C1974   1.410       .  A
C1973      H1977   1.083       .  S
C1974      O1978   1.372       .  S
O1976      H1980   0.991       .  S
O1978      H1979   0.992       .  S
C1981      C1982   1.398       .  A
C1981      C1986   1.418       .  A
C1982      C1983   1.402       .  A
C1982      H1987   1.084       .  S
C1983      C1984   1.418       .  A
C1983      O1988   1.373       .  S
C1984      C1985   1.401       .  A
C1985      C1986   1.406       .  A
C1985      H1989   1.084       .  S
C1986      O1990   1.372       .  S
O1988      H1992   0.993       .  S
O1990      H1991   0.993       .  S
C1993      C2702   1.407       .  A
C1993      C1998   1.414       .  A
C1994      C2701   1.405   1_545  A
C1994      C1995   1.400       .  A
C1994      H1999   1.084       .  S
C1995      C2704   1.412   1_545  A
C1995      O2000   1.372       .  S
C1996      C2703   1.409       .  A
C1996      C1997   1.403       .  A
C1997      C1998   1.398       .  A
C1997      H2001   1.084       .  S
C1998      O2002   1.372       .  S
O2000      H2004   0.992       .  S
O2002      H2003   0.992       .  S
C2005      C2010   1.414   1_455  A
C2006      C2007   1.395       .  A
C2006      H2011   1.083       .  S
C2007      O2012   1.372       .  S
C2008      C2009   1.403   1_455  A
C2009      C2010   1.402       .  A
C2009      H2013   1.084       .  S
C2010      O2014   1.371       .  S
O2012      H2016   0.991       .  S
O2014      H2015   0.992       .  S
C2017      C2018   1.411       .  A
C2017      C2022   1.400       .  A
C2018      C2019   1.407       .  A
C2018      H2023   1.084       .  S
C2019      C2020   1.408       .  A
C2019      O2024   1.371       .  S
C2020      C2021   1.416       .  A
C2021      C2022   1.403       .  A
C2021      H2025   1.083       .  S
C2022      O2026   1.372       .  S
O2024      H2028   0.992       .  S
O2026      H2027   0.992       .  S
C2029      C2030   1.399       .  A
C2029      C2034   1.414       .  A
C2030      C2031   1.395       .  A
C2030      H2035   1.084       .  S
C2031      C2032   1.421       .  A
C2031      O2036   1.373       .  S
C2032      C2033   1.407       .  A
C2033      C2034   1.413       .  A
C2033      H2037   1.083       .  S
C2034      O2038   1.371       .  S
O2036      H2040   0.991       .  S
O2038      H2039   0.992       .  S
C2041      C2046   1.414       .  A
C2042      C2043   1.402       .  A
C2042      H2047   1.083       .  S
C2043      O2048   1.372       .  S
C2044      C2045   1.401       .  A
C2045      C2046   1.398       .  A
C2045      H2049   1.084       .  S
C2046      O2050   1.372       .  S
O2048      H2052   0.992       .  S
O2050      H2051   0.991       .  S
C2053      C2054   1.402   1_455  A
C2054      C2055   1.403       .  A
C2054      H2059   1.084       .  S
C2055      C2056   1.413       .  A
C2055      O2060   1.372       .  S
C2057      C2058   1.398       .  A
C2057      H2061   1.084       .  S
C2058      O2062   1.372       .  S
O2060      H2064   0.992       .  S
O2062      H2063   0.992       .  S
C2065      C2070   1.408       .  A
C2066      C2067   1.399       .  A
C2066      H2071   1.083       .  S
C2067      C2068   1.397       .  A
C2067      O2072   1.372       .  S
C2069      C2070   1.408       .  A
C2069      H2073   1.084       .  S
C2070      O2074   1.371   1_455  S
O2072      H2076   0.992       .  S
O2074      H2075   0.992       .  S
C2077      C2082   1.399   1_455  A
C2078      C2079   1.398       .  A
C2078      H2083   1.083       .  S
C2079      C2080   1.400       .  A
C2079      O2084   1.372       .  S
C2081      C2082   1.398       .  A
C2081      H2085   1.084       .  S
C2082      O2086   1.371       .  S
O2084      H2088   0.992       .  S
O2086      H2087   0.992       .  S
C2089      C2090   1.400       .  A
C2089      C2802   1.421       .  A
C2090      C2091   1.408       .  A
C2090      H2095   1.083       .  S
C2091      C2800   1.422       .  A
C2091      O2096   1.372       .  S
C2092      C2799   1.427       .  A
C2092      C2093   1.400       .  A
C2093      C2094   1.407       .  A
C2093      H2097   1.083       .  S
C2094      C2797   1.426       .  A
C2094      O2098   1.372       .  S
O2096      H2100   0.992       .  S
O2098      H2099   0.992       .  S
C2101      C2810   1.404       .  A
C2101      C2106   1.415       .  A
C2102      C2809   1.404       .  A
C2102      C2103   1.405       .  A
C2102      H2107   1.083       .  S
C2103      C2104   1.417       .  A
C2103      O2108   1.371       .  S
C2104      C2813   1.407       .  A
C2105      C2812   1.408       .  A
C2105      C2106   1.410   1_565  A
C2105      H2109   1.083       .  S
C2106      O2110   1.371       .  S
O2108      H2112   0.992       .  S
O2110      H2111   0.992       .  S
C2113      C2143   1.493   1_655  S
C2113      C2118   1.415       .  A
C2114      C2115   1.403       .  A
C2114      H2119   1.083       .  S
C2115      O2120   1.372       .  S
C2116      C2117   1.403       .  A
C2117      C2118   1.403       .  A
C2117      H2121   1.084       .  S
C2118      O2122   1.371       .  S
O2120      H2124   0.992       .  S
O2122      H2123   0.992       .  S
Zn2125     O2141   2.036       .  S
Zn2126     O2131   2.022       .  S
Zn2126     O2133   2.124       .  S
Zn2126     O2137   2.107       .  S
Zn2127     O2132   2.071       .  S
Zn2127     O2135   2.021       .  S
Zn2127     O2138   2.093       .  S
Zn2127     O2129   1.953       .  S
Zn2128     O2140   2.005       .  S
O2130      C2142   1.265       .  A
O2132      C2144   1.283       .  A
O2133      C2142   1.288   1_565  A
O2134      C2144   1.269       .  A
O2136      C2145   1.265       .  A
O2137      C2146   1.288   1_655  A
O2138      C2145   1.280       .  A
O2139      C2146   1.267       .  A
O2140      C2147   1.270   1_565  A
C2142      C2800   1.501       .  S
C2144      C2788   1.466       .  S
C2145      C2809   1.498       .  S
C2146      C2773   1.495       .  S
Zn2148     O2153   1.971       .  S
Zn2148     O2164   1.975       .  S
Zn2149     O2154   1.994       .  S
Zn2149     O2156   2.076       .  S
Zn2149     O2160   2.082       .  S
Zn2150     O2155   2.099       .  S
Zn2150     O2158   2.037       .  S
Zn2150     O2161   2.111       .  S
Zn2150     O2152   1.965   1_655  S
Zn2151     O2159   1.965       .  S
Zn2151     O2163   2.032       .  S
Zn2151     O2152   1.911   1_655  S
O2153      C2165   1.267       .  A
O2154      C2166   1.270       .  A
O2155      C2167   1.287   1_655  A
O2156      C2165   1.276       .  A
O2157      C2167   1.269       .  A
O2159      C2168   1.268       .  A
O2160      C2169   1.283       .  A
O2161      C2168   1.286       .  A
O2162      C2169   1.266       .  A
O2163      C2170   1.273   1_655  A
C2165      C2737   1.500       .  S
C2166      C2749   1.485       .  S
C2167      C2785   1.492       .  S
C2168      C2725   1.488       .  S
C2169      C2776   1.470       .  S
C2170      C2713   1.478       .  S
Zn2171     O2176   2.104       .  S
Zn2171     O2180   2.100       .  S
Zn2171     O2187   2.051       .  S
Zn2171     O2175   1.969       .  S
Zn2172     O2177   1.988       .  S
Zn2172     O2179   1.925       .  S
Zn2172     O2175   1.907       .  S
Zn2173     O2181   1.996       .  S
Zn2173     O2184   1.947       .  S
Zn2174     O2182   2.106       .  S
Zn2174     O2185   2.131       .  S
Zn2174     O2186   2.068       .  S
O2176      C2188   1.287       .  A
O2177      C2189   1.267       .  A
O2178      C2190   1.268       .  A
O2179      C2188   1.265       .  A
O2180      C2190   1.282       .  A
O2182      C2191   1.289       .  A
O2183      C2192   1.264       .  A
O2184      C2191   1.266       .  A
O2185      C2192   1.290       .  A
O2187      C2193   1.277       .  A
C2188      C2677   1.491       .  S
C2189      C2704   1.484       .  S
C2190      C2812   1.500       .  S
C2191      C2689   1.481       .  S
C2192      C2797   1.502       .  S
C2193      C2668   1.498       .  S
Zn2194     O2199   1.974       .  S
Zn2194     O2203   1.960       .  S
Zn2194     O2210   2.000       .  S
Zn2194     O2198   1.936       .  S
Zn2195     O2200   2.036       .  S
Zn2195     O2202   2.094       .  S
Zn2195     O2206   2.106       .  S
Zn2195     O2198   1.974       .  S
Zn2196     O2201   2.076       .  S
Zn2196     O2204   2.025       .  S
Zn2196     O2207   2.098       .  S
Zn2196     O2198   1.965       .  S
Zn2197     O2205   1.966       .  S
Zn2197     O2208   1.928       .  S
Zn2197     O2209   2.024       .  S
Zn2197     O2198   1.921       .  S
O2199      C2211   1.267       .  A
O2200      C2212   1.274       .  A
O2201      C2213   1.285       .  A
O2202      C2211   1.281       .  A
O2203      C2213   1.268       .  A
O2204      C2212   1.274       .  A
O2205      C2214   1.267       .  A
O2206      C2215   1.287       .  A
O2207      C2214   1.284       .  A
O2208      C2215   1.265       .  A
O2209      C2216   1.271       .  A
O2210      C2216   1.269       .  A
C2211      C2740   1.497       .  S
C2212      C2653   1.489       .  S
C2213      C2680   1.489       .  S
C2214      C2728   1.495       .  S
C2215      C2692   1.486       .  S
C2216      C2641   1.481       .  S
Zn2217     O2222   2.089       .  S
Zn2217     O2233   2.010       .  S
Zn2218     O2223   2.060       .  S
Zn2218     O2225   1.971       .  S
Zn2218     O2229   1.945       .  S
Zn2219     O2224   1.949       .  S
Zn2219     O2227   2.019       .  S
Zn2219     O2230   1.984       .  S
Zn2219     O2221   1.925   1_566  S
Zn2220     O2228   2.096   1_545  S
Zn2220     O2232   2.011       .  S
Zn2220     O2221   1.962       .  S
O2222      C2234   1.286       .  A
O2225      C2234   1.270   1_556  A
O2226      C2236   1.281   1_554  A
O2227      C2235   1.272   1_565  A
O2228      C2237   1.278       .  A
O2230      C2237   1.270   1_556  A
O2231      C2238   1.284   1_554  A
O2232      C2239   1.273       .  A
C2234      C2593   1.485       .  S
C2235      C2629   1.500       .  S
C2236      C2608   1.498   1_556  S
C2237      C2581   1.506       .  S
C2238      C2617   1.477       .  S
C2239      C2824   1.485   1_655  S
Zn2240     O2245   2.008       .  S
Zn2240     O2249   2.084       .  S
Zn2240     O2256   2.086       .  S
Zn2241     O2246   2.101       .  S
Zn2241     O2248   2.037       .  S
Zn2241     O2252   2.110       .  S
Zn2241     O2244   1.980   1_554  S
Zn2242     O2247   1.989       .  S
Zn2242     O2250   1.942       .  S
Zn2242     O2253   2.012       .  S
Zn2243     O2251   2.029       .  S
Zn2243     O2254   1.969       .  S
Zn2243     O2255   1.959       .  S
Zn2243     O2244   1.920       .  S
O2246      C2258   1.287   1_554  A
O2247      C2259   1.270       .  A
O2248      C2257   1.274       .  A
O2249      C2259   1.279   1_554  A
O2251      C2260   1.273       .  A
O2252      C2261   1.287   1_554  A
O2254      C2261   1.268       .  A
O2256      C2262   1.284       .  A
C2257      C2752   1.479       .  S
C2258      C2620   1.497       .  S
C2259      C2548   1.503       .  S
C2260      C2572   1.493       .  S
C2261      C2557   1.491   1_556  S
C2262      C2605   1.475       .  S
Zn2263     O2272   2.010       .  S
Zn2263     O2279   2.120       .  S
Zn2263     O2267   1.956   1_554  S
Zn2264     O2269   1.969       .  S
Zn2264     O2271   1.951       .  S
Zn2264     O2275   1.969       .  S
Zn2265     O2270   2.005       .  S
Zn2265     O2273   2.098       .  S
Zn2266     O2274   1.952       .  S
Zn2266     O2277   2.028       .  S
Zn2266     O2278   1.962       .  S
Zn2266     O2267   1.904       .  S
O2268      C2280   1.287       .  A
O2269      C2281   1.266   1_556  A
O2271      C2280   1.268   1_556  A
O2272      C2282   1.272       .  A
O2273      C2281   1.278       .  A
O2274      C2283   1.269   1_556  A
O2276      C2283   1.282       .  A
O2277      C2284   1.272       .  A
O2278      C2285   1.268       .  A
O2279      C2285   1.289   1_554  A
C2280      C2521   1.496       .  S
C2281      C2545   1.503       .  S
C2282      C2701   1.478       .  S
C2283      C2509   1.469       .  S
C2284      C2536   1.473       .  S
C2285      C2560   1.498   1_556  S
Zn2286     O2291   2.037       .  S
Zn2286     O2295   2.108       .  S
Zn2286     O2302   2.099       .  S
Zn2286     O2290   1.974       .  S
Zn2287     O2292   2.102       .  S
Zn2287     O2294   2.020       .  S
Zn2287     O2298   2.106       .  S
Zn2287     O2290   1.963       .  S
Zn2288     O2293   1.947       .  S
Zn2288     O2296   1.944       .  S
Zn2288     O2299   2.033       .  S
Zn2288     O2290   1.910   1_556  S
Zn2289     O2297   1.992       .  S
Zn2289     O2300   1.973       .  S
Zn2289     O2301   1.931       .  S
Zn2289     O2290   1.918   1_556  S
O2291      C2303   1.275       .  A
O2292      C2304   1.287       .  A
O2293      C2305   1.266   1_556  A
O2294      C2303   1.274       .  A
O2295      C2305   1.286       .  A
O2296      C2304   1.267   1_556  A
O2297      C2306   1.268       .  A
O2298      C2307   1.279       .  A
O2299      C2306   1.272       .  A
O2300      C2307   1.266   1_556  A
O2301      C2308   1.265   1_556  A
O2302      C2308   1.286       .  A
C2303      C2656   1.484       .  S
C2304      C2524   1.473       .  S
C2305      C2596   1.488       .  S
C2306      C2497   1.488       .  S
C2307      C2584   1.508       .  S
C2308      C2512   1.480       .  S
Zn2309     O2314   1.969       .  S
Zn2309     O2318   1.937       .  S
Zn2309     O2325   1.983       .  S
Zn2310     O2315   2.054       .  S
Zn2310     O2321   2.107       .  S
Zn2310     O2313   1.968       .  S
Zn2311     O2316   2.089       .  S
Zn2311     O2319   2.028       .  S
Zn2312     O2320   1.942       .  S
Zn2312     O2323   1.952       .  S
Zn2312     O2324   2.014       .  S
Zn2312     O2313   1.916       .  S
O2315      C2327   1.278       .  A
O2316      C2328   1.285       .  A
O2317      C2326   1.285       .  A
O2318      C2328   1.265       .  A
O2321      C2330   1.287       .  A
O2322      C2329   1.285       .  A
O2323      C2330   1.269       .  A
O2324      C2331   1.269   1_655  A
C2326      C2485   1.504       .  S
C2327      C2632   1.495       .  S
C2328      C2461   1.486       .  S
C2329      C2473   1.489       .  S
C2330      C2452   1.487       .  S
C2331      C2764   1.475   1_565  S
Zn2332     O2337   2.014   1_455  S
Zn2332     O2348   2.061   1_455  S
Zn2332     O2336   1.942       .  S
Zn2333     O2338   2.092       .  S
Zn2333     O2340   2.039       .  S
Zn2334     O2339   1.940       .  S
Zn2334     O2342   1.940       .  S
Zn2334     O2345   1.983       .  S
Zn2335     O2343   2.009       .  S
Zn2335     O2346   1.943       .  S
Zn2335     O2347   1.976       .  S
Zn2335     O2336   1.912   1_655  S
O2337      C2349   1.273       .  A
O2338      C2350   1.286       .  A
O2339      C2351   1.266       .  A
O2341      C2351   1.284       .  A
O2342      C2350   1.264       .  A
O2343      C2352   1.271   1_655  A
O2344      C2353   1.281       .  A
O2346      C2353   1.267       .  A
O2347      C2354   1.268       .  A
O2348      C2354   1.280       .  A
C2349      C2569   1.492       .  S
C2350      C2413   1.484       .  S
C2351      C2437   1.498       .  S
C2352      C2716   1.483       .  S
C2353      C2425   1.472       .  S
C2354      C2401   1.489       .  S
Zn2355     O2360   1.949       .  S
Zn2355     O2364   1.951       .  S
Zn2355     O2371   2.011       .  S
Zn2356     O2361   2.063       .  S
Zn2356     O2363   2.096       .  S
Zn2356     O2367   2.117       .  S
Zn2357     O2362   2.117       .  S
Zn2357     O2365   2.049       .  S
Zn2357     O2368   2.108       .  S
Zn2357     O2359   1.973   1_565  S
Zn2358     O2366   1.932       .  S
Zn2358     O2369   1.972   1_565  S
Zn2358     O2370   1.994       .  S
Zn2358     O2359   1.929   1_565  S
O2360      C2372   1.268       .  A
O2362      C2374   1.288       .  A
O2363      C2372   1.286       .  A
O2365      C2373   1.278   1_565  A
O2366      C2375   1.264       .  A
O2367      C2376   1.286       .  A
O2368      C2375   1.287       .  A
O2370      C2377   1.266   1_565  A
C2372      C2404   1.483       .  S
C2373      C2665   1.502       .  S
C2374      C2476   1.489       .  S
C2375      C2416   1.482       .  S
C2376      C2488   1.507       .  S
C2377      C2533   1.475       .  S
Zn2378     O2383   2.003       .  S
Zn2378     O2387   1.927       .  S
Zn2378     O2394   1.971       .  S
Zn2378     O2382   1.912       .  S
Zn2379     O2384   1.936       .  S
Zn2379     O2386   2.016       .  S
Zn2379     O2390   1.937       .  S
Zn2379     O2382   1.900       .  S
Zn2380     O2385   2.074       .  S
Zn2380     O2388   2.085       .  S
Zn2380     O2391   2.028       .  S
Zn2380     O2382   1.974       .  S
Zn2381     O2389   2.018       .  S
Zn2381     O2392   2.097       .  S
Zn2381     O2393   2.086       .  S
Zn2381     O2382   1.958       .  S
O2383      C2395   1.269       .  A
O2384      C2396   1.265       .  A
O2385      C2397   1.282       .  A
O2386      C2395   1.271       .  A
O2387      C2397   1.265       .  A
O2388      C2396   1.282       .  A
O2389      C2398   1.275       .  A
O2390      C2399   1.266       .  A
O2391      C2398   1.274       .  A
O2392      C2399   1.284       .  A
O2393      C2400   1.279       .  A
O2394      C2400   1.268       .  A
C2395      C2644   1.485       .  S
C2396      C2464   1.473       .  S
C2397      C2428   1.469       .  S
C2398      C2500   1.488       .  S
C2399      C2440   1.472       .  S
C2400      C2449   1.499       .  S
C2401      C2402   1.405       .  A
C2401      C2406   1.415       .  A
C2402      C2403   1.400       .  A
C2402      H2407   1.084       .  S
C2403      C2404   1.412       .  A
C2403      O2408   1.372       .  S
C2404      C2405   1.404       .  A
C2405      C2406   1.406       .  A
C2405      H2409   1.084       .  S
C2406      O2410   1.371       .  S
O2408      H2412   0.992       .  S
O2410      H2411   0.992       .  S
C2413      C2414   1.400       .  A
C2413      C2418   1.419       .  A
C2414      C2415   1.400       .  A
C2414      H2419   1.084       .  S
C2415      C2416   1.416       .  A
C2415      O2420   1.372       .  S
C2416      C2417   1.399       .  A
C2417      C2418   1.405       .  A
C2417      H2421   1.084       .  S
C2418      O2422   1.373       .  S
O2420      H2424   0.992       .  S
O2422      H2423   0.992       .  S
C2425      C2426   1.413       .  A
C2425      C2430   1.401       .  A
C2426      C2427   1.399       .  A
C2426      H2431   1.084       .  S
C2427      C2428   1.400       .  A
C2427      O2432   1.372       .  S
C2428      C2429   1.411       .  A
C2429      C2430   1.395       .  A
C2429      H2433   1.085       .  S
C2430      O2434   1.372       .  S
O2432      H2436   0.992       .  S
O2434      H2435   0.992       .  S
C2437      C2438   1.415       .  A
C2437      C2442   1.412       .  A
C2438      C2439   1.395       .  A
C2438      H2443   1.083       .  S
C2439      C2440   1.401       .  A
C2439      O2444   1.372       .  S
C2440      C2441   1.409       .  A
C2441      C2442   1.412       .  A
C2441      H2445   1.084       .  S
C2442      O2446   1.371       .  S
O2444      H2448   0.992       .  S
O2446      H2447   0.992       .  S
C2449      C2450   1.409       .  A
C2449      C2454   1.415       .  A
C2450      C2451   1.398       .  A
C2450      H2455   1.083       .  S
C2451      C2452   1.411       .  A
C2451      O2456   1.372       .  S
C2452      C2453   1.407       .  A
C2453      C2454   1.412       .  A
C2453      H2457   1.083       .  S
C2454      O2458   1.371       .  S
O2456      H2460   0.991       .  S
O2458      H2459   0.992       .  S
C2461      C2462   1.417       .  A
C2461      C2466   1.404       .  A
C2462      C2463   1.401       .  A
C2462      H2467   1.084       .  S
C2463      C2464   1.399       .  A
C2463      O2468   1.372       .  S
C2464      C2465   1.411       .  A
C2465      C2466   1.400       .  A
C2465      H2469   1.084       .  S
C2466      O2470   1.371       .  S
O2468      H2472   0.992       .  S
O2470      H2471   0.992       .  S
C2473      C2474   1.399       .  A
C2474      C2475   1.402       .  A
C2474      H2479   1.084       .  S
C2475      O2480   1.372       .  S
C2476      C2477   1.399       .  A
C2477      C2478   1.405       .  A
C2477      H2481   1.084       .  S
C2478      O2482   1.372       .  S
O2480      H2484   0.992       .  S
O2482      H2483   0.992   1_565  S
C2485      C2486   1.414       .  A
C2486      C2487   1.408   1_565  A
C2486      H2491   1.083       .  S
C2487      O2492   1.371       .  S
C2488      C2489   1.415       .  A
C2489      C2490   1.409       .  A
C2489      H2493   1.083       .  S
C2490      O2494   1.371       .  S
O2492      H2496   0.992       .  S
O2494      H2495   0.992       .  S
C2497      C2498   1.406       .  A
C2497      C2502   1.414       .  A
C2498      C2499   1.403       .  A
C2498      H2503   1.083       .  S
C2499      C2500   1.412       .  A
C2499      O2504   1.371       .  S
C2500      C2501   1.405       .  A
C2501      C2502   1.399       .  A
C2501      H2505   1.084       .  S
C2502      O2506   1.372       .  S
O2504      H2508   0.992       .  S
O2506      H2507   0.991       .  S
C2509      C2510   1.399   1_554  A
C2509      C2514   1.411       .  A
C2510      C2511   1.395       .  A
C2510      H2515   1.084       .  S
C2511      C2512   1.415   1_556  A
C2511      O2516   1.373       .  S
C2512      C2513   1.404       .  A
C2513      C2514   1.406       .  A
C2513      H2517   1.083       .  S
C2514      O2518   1.372       .  S
O2516      H2520   0.993       .  S
O2518      H2519   0.992       .  S
C2521      C2522   1.417       .  A
C2521      C2526   1.408       .  A
C2522      C2523   1.401       .  A
C2522      H2527   1.083   1_554  S
C2523      C2524   1.400       .  A
C2523      O2528   1.372   1_554  S
C2524      C2525   1.410       .  A
C2525      C2526   1.406       .  A
C2525      H2529   1.084       .  S
C2526      O2530   1.371       .  S
O2528      H2532   0.992       .  S
O2530      H2531   0.993       .  S
C2533      C2538   1.412   1_545  A
C2534      C2535   1.394       .  A
C2534      H2539   1.084       .  S
C2535      O2540   1.372       .  S
C2536      C2537   1.402       .  A
C2537      C2538   1.400       .  A
C2537      H2541   1.084       .  S
C2538      O2542   1.372       .  S
O2540      H2544   0.991       .  S
O2542      H2543   0.992       .  S
C2545      C2546   1.408   1_554  A
C2545      C2550   1.415       .  A
C2546      C2547   1.400       .  A
C2546      H2551   1.083       .  S
C2547      C2548   1.414       .  A
C2547      O2552   1.372       .  S
C2548      C2549   1.411   1_556  A
C2549      C2550   1.414       .  A
C2549      H2553   1.083       .  S
C2550      O2554   1.371       .  S
O2552      H2556   0.992       .  S
O2554      H2555   0.992       .  S
C2557      C2558   1.396   1_554  A
C2557      C2562   1.419       .  A
C2558      C2559   1.406       .  A
C2558      H2563   1.084       .  S
C2559      C2560   1.425   1_556  A
C2559      O2564   1.373       .  S
C2560      C2561   1.400       .  A
C2561      C2562   1.408       .  A
C2561      H2565   1.083       .  S
C2562      O2566   1.373       .  S
O2564      H2568   0.993       .  S
O2566      H2567   0.992   1_554  S
C2569      C2570   1.407   1_655  A
C2570      C2571   1.408       .  A
C2570      H2575   1.083       .  S
C2571      O2576   1.371       .  S
C2572      C2573   1.406       .  A
C2573      C2574   1.401       .  A
C2573      H2577   1.083       .  S
C2574      O2578   1.372       .  S
O2576      H2580   0.991       .  S
O2578      H2579   0.992       .  S
C2581      C2582   1.406   1_554  A
C2581      C2586   1.416       .  A
C2582      C2583   1.400       .  A
C2582      H2587   1.083       .  S
C2583      C2584   1.417   1_556  A
C2583      O2588   1.371       .  S
C2584      C2585   1.412       .  A
C2585      C2586   1.417       .  A
C2585      H2589   1.083       .  S
C2586      O2590   1.371       .  S
O2588      H2592   0.992       .  S
O2590      H2591   0.992       .  S
C2593      C2594   1.415       .  A
C2593      C2598   1.401       .  A
C2594      C2595   1.406       .  A
C2594      H2599   1.084       .  S
C2595      C2596   1.403       .  A
C2595      O2600   1.371       .  S
C2596      C2597   1.415       .  A
C2597      C2598   1.402       .  A
C2597      H2601   1.084       .  S
C2598      O2602   1.371       .  S
O2600      H2604   0.992   1_554  S
O2602      H2603   0.992   1_554  S
C2605      C2606   1.411   1_655  A
C2606      C2607   1.399       .  A
C2606      H2611   1.084       .  S
C2607      O2612   1.371       .  S
C2608      C2609   1.413   1_554  A
C2609      C2610   1.400       .  A
C2609      H2613   1.083       .  S
C2610      O2614   1.372       .  S
O2612      H2616   0.993       .  S
O2614      H2615   0.992       .  S
C2617      C2622   1.408       .  A
C2618      C2619   1.405       .  A
C2618      H2623   1.084       .  S
C2619      C2620   1.407   1_554  A
C2619      O2624   1.371       .  S
C2621      C2622   1.393       .  A
C2621      H2625   1.084       .  S
C2622      O2626   1.374       .  S
O2624      H2628   0.992       .  S
O2626      H2627   0.993       .  S
C2629      C2630   1.410   1_545  A
C2630      C2631   1.405       .  A
C2630      H2635   1.083       .  S
C2631      C2632   1.410       .  A
C2631      O2636   1.371       .  S
C2633      C2634   1.407       .  A
C2633      H2637   1.083       .  S
C2634      O2638   1.371       .  S
O2636      H2640   0.992       .  S
O2638      H2639   0.992       .  S
C2641      C2642   1.404       .  A
C2641      C2646   1.408       .  A
C2642      C2643   1.398       .  A
C2642      H2647   1.084       .  S
C2643      C2644   1.411       .  A
C2643      O2648   1.372       .  S
C2644      C2645   1.408       .  A
C2645      C2646   1.402       .  A
C2645      H2649   1.083       .  S
C2646      O2650   1.371       .  S
O2648      H2652   0.992       .  S
O2650      H2651   0.992       .  S
C2653      C2654   1.406       .  A
C2653      C2658   1.413       .  A
C2654      C2655   1.400       .  A
C2654      H2659   1.083       .  S
C2655      C2656   1.409       .  A
C2655      O2660   1.372       .  S
C2656      C2657   1.405       .  A
C2657      C2658   1.406       .  A
C2657      H2661   1.084       .  S
C2658      O2662   1.371       .  S
O2660      H2664   0.992       .  S
O2662      H2663   0.992       .  S
C2665      C2666   1.409   1_545  A
C2666      C2667   1.408       .  A
C2666      H2671   1.083       .  S
C2667      C2668   1.412       .  A
C2667      O2672   1.371       .  S
C2669      C2670   1.410       .  A
C2669      H2673   1.083       .  S
C2670      O2674   1.371       .  S
O2672      H2676   0.992       .  S
O2674      H2675   0.992       .  S
C2677      C2678   1.415       .  A
C2677      C2682   1.405       .  A
C2678      C2679   1.398       .  A
C2678      H2683   1.083       .  S
C2679      C2680   1.405       .  A
C2679      O2684   1.372       .  S
C2680      C2681   1.415       .  A
C2681      C2682   1.404       .  A
C2681      H2685   1.083       .  S
C2682      O2686   1.371       .  S
O2684      H2688   0.991       .  S
O2686      H2687   0.992       .  S
C2689      C2690   1.397       .  A
C2689      C2694   1.416       .  A
C2690      C2691   1.401       .  A
C2690      H2695   1.084       .  S
C2691      C2692   1.418       .  A
C2691      O2696   1.373       .  S
C2692      C2693   1.403       .  A
C2693      C2694   1.406       .  A
C2693      H2697   1.084       .  S
C2694      O2698   1.372       .  S
O2696      H2700   0.993       .  S
O2698      H2699   0.993       .  S
C2701      C2706   1.408       .  A
C2702      C2703   1.399       .  A
C2702      H2707   1.083       .  S
C2703      O2708   1.372       .  S
C2704      C2705   1.407       .  A
C2705      C2706   1.396       .  A
C2705      H2709   1.083       .  S
C2706      O2710   1.372       .  S
O2708      H2712   0.992       .  S
O2710      H2711   0.992       .  S
C2713      C2718   1.408   1_455  A
C2714      C2715   1.391       .  A
C2714      H2719   1.084       .  S
C2715      O2720   1.372       .  S
C2716      C2717   1.408   1_455  A
C2717      C2718   1.401       .  A
C2717      H2721   1.083       .  S
C2718      O2722   1.371       .  S
O2720      H2724   0.991       .  S
O2722      H2723   0.991       .  S
C2725      C2726   1.412       .  A
C2725      C2730   1.403       .  A
C2726      C2727   1.405       .  A
C2726      H2731   1.084       .  S
C2727      C2728   1.405       .  A
C2727      O2732   1.371       .  S
C2728      C2729   1.417       .  A
C2729      C2730   1.407       .  A
C2729      H2733   1.084       .  S
C2730      O2734   1.372       .  S
O2732      H2736   0.992       .  S
O2734      H2735   0.991       .  S
C2737      C2738   1.408       .  A
C2737      C2742   1.414       .  A
C2738      C2739   1.401       .  A
C2738      H2743   1.083       .  S
C2739      C2740   1.413       .  A
C2739      O2744   1.373       .  S
C2740      C2741   1.409       .  A
C2741      C2742   1.412       .  A
C2741      H2745   1.083       .  S
C2742      O2746   1.371       .  S
O2744      H2748   0.992       .  S
O2746      H2747   0.992       .  S
C2749      C2754   1.415       .  A
C2750      C2751   1.403       .  A
C2750      H2755   1.084       .  S
C2751      O2756   1.372       .  S
C2752      C2753   1.401       .  A
C2753      C2754   1.401       .  A
C2753      H2757   1.084       .  S
C2754      O2758   1.372       .  S
O2756      H2760   0.992       .  S
O2758      H2759   0.991       .  S
C2761      C2762   1.404   1_455  A
C2762      C2763   1.403       .  A
C2762      H2767   1.084       .  S
C2763      C2764   1.410   1_655  A
C2763      O2768   1.372       .  S
C2765      C2766   1.393       .  A
C2765      H2769   1.084       .  S
C2766      O2770   1.373       .  S
O2768      H2772   0.992   1_545  S
O2770      H2771   0.992       .  S
C2773      C2778   1.408   1_455  A
C2774      C2775   1.400       .  A
C2774      H2779   1.082       .  S
C2775      C2776   1.397       .  A
C2775      O2780   1.372       .  S
C2777      C2778   1.406   1_455  A
C2777      H2781   1.084   1_455  S
C2778      O2782   1.371       .  S
O2780      H2784   0.992       .  S
O2782      H2783   0.992       .  S
C2785      C2790   1.406   1_455  A
C2786      C2787   1.397       .  A
C2786      H2791   1.084       .  S
C2787      C2788   1.402       .  A
C2787      O2792   1.372       .  S
C2789      C2790   1.403       .  A
C2789      H2793   1.084       .  S
C2790      O2794   1.371       .  S
O2792      H2796   0.992       .  S
O2794      H2795   0.992       .  S
C2797      C2798   1.398       .  A
C2798      C2799   1.406       .  A
C2798      H2803   1.083       .  S
C2799      O2804   1.372       .  S
C2800      C2801   1.402   1_545  A
C2801      C2802   1.408   1_565  A
C2801      H2805   1.084       .  S
C2802      O2806   1.373   1_545  S
O2804      H2808   0.992       .  S
O2806      H2807   0.992       .  S
C2809      C2814   1.416       .  A
C2810      C2811   1.405   1_545  A
C2810      H2815   1.083       .  S
C2811      C2812   1.416       .  A
C2811      O2816   1.372       .  S
C2813      C2814   1.410       .  A
C2813      H2817   1.083       .  S
C2814      O2818   1.371       .  S
O2816      H2820   0.992       .  S
O2818      H2819   0.992       .  S
C2821      C2826   1.409   1_455  A
C2822      C2823   1.400       .  A
C2822      H2827   1.083       .  S
C2823      O2828   1.372       .  S
C2824      C2825   1.405   1_455  A
C2825      C2826   1.399       .  A
C2825      H2829   1.084   1_545  S
C2826      O2830   1.372   1_545  S
O2828      H2832   0.992       .  S
O2830      H2831   0.992       .  S
