geometry optimzed in LAMMPS
_audit_creation_date              2020-11-30 
_audit_creation_method            'lammps2cif' 
_symmetry_space_group_name_H-M    'P1' 
_symmetry_Int_Tables_number       1 
_symmetry_cell_setting            triclinic 
loop_ 
_symmetry_equiv_pos_as_xyz 
  x,y,z 
_cell_length_a                    32.85191432 
_cell_length_b                    32.97611420025972 
_cell_length_c                    46.83409869482401 
_cell_angle_alpha                 89.57904643333497 
_cell_angle_beta                  89.86429465144504 
_cell_angle_gamma                 120.12535020620813 
loop_ 
_atom_site_label 
_atom_site_type_symbol 
_atom_site_fract_x 
_atom_site_fract_y 
_atom_site_fract_z 
_atom_site_charge 
Fe1        Fe  0.19562256  0.73673692  0.07944813     1.65800
Fe2        Fe  0.26434696  0.80535855  0.13170857     1.73200
Fe3        Fe  0.17692650  0.82004875  0.10595006     1.54400
O4          O  0.16774851  0.81541312  0.06109410    -0.82500
O5          O  0.22163506  0.79456074  0.16597473    -0.80800
O6          O  0.20541200  0.77918674  0.04526973    -0.85000
O7          O  0.12401517  0.71485601  0.07981732    -0.79900
O8          O  0.23663646  0.88400029  0.10013149    -0.81600
O9          O  0.25114030  0.73659102  0.13602637    -0.84400
C10         C  0.09799684  0.72403544  0.09541257     0.96400
C11         C  0.18456204  0.80216501  0.04088269     1.03800
O12         O  0.21265897  0.78794133  0.10552538    -1.13400
O13         O  0.31028967  0.81686390  0.09900581    -0.75800
O14         O  0.26510388  0.75133400  0.07512531    -0.79300
O15         O  0.11526256  0.75806838  0.11251343    -0.80000
C16         C  0.30540206  0.78493854  0.08212487     0.95300
O17         O  0.18464158  0.69206640  0.11261662    -0.77900
O18         O  0.28435759  0.87624168  0.13056767    -0.83100
C19         C  0.19744446  0.81403381  0.17054144     0.97900
C20         C  0.27244155  0.90147759  0.11614788     1.03800
O21         O  0.18191929  0.82890545  0.15049675    -0.78800
C22         C  0.21741540  0.69661106  0.12877815     1.02100
Fe23       Fe  0.19698000  0.73925573  0.32511138     1.65800
Fe24       Fe  0.26072545  0.80047609  0.38117772     1.73200
Fe25       Fe  0.17606419  0.81895060  0.35556323     1.54400
O26         O  0.16822564  0.81859847  0.31075110    -0.82500
O27         O  0.21641222  0.78650999  0.41519131    -0.80800
O28         O  0.20981683  0.78731291  0.29403516    -0.85000
O29         O  0.12482474  0.71736350  0.32489353    -0.79900
O30         O  0.23665833  0.88248299  0.35157006    -0.81600
O31         O  0.24663339  0.73061894  0.38257137    -0.84400
C32         C  0.09782778  0.72489608  0.34089899     0.96400
C33         C  0.18791917  0.80928811  0.29031057     1.03800
O34         O  0.21078770  0.78577319  0.35426457    -1.13400
O35         O  0.30840901  0.81689909  0.34890405    -0.75800
O36         O  0.26698541  0.75496051  0.32160296    -0.79300
O37         O  0.11384614  0.75692559  0.35947512    -0.80000
C38         C  0.30619442  0.78788691  0.33066741     0.95300
O39         O  0.18462921  0.68859701  0.35459522    -0.77900
O40         O  0.28083993  0.87145496  0.38306589    -0.83100
C41         C  0.19353245  0.80723928  0.42031293     0.97900
C42         C  0.27074907  0.89830026  0.36883444     1.03800
O43         O  0.17966440  0.82432038  0.40055026    -0.78800
C44         C  0.21447988  0.69149045  0.37273150     1.02100
Fe45       Fe  0.26649726  0.46694131  0.15669979     1.65800
Fe46       Fe  0.19994194  0.46838808  0.21065029     1.73200
Fe47       Fe  0.18176050  0.36581158  0.18552111     1.54400
O48         O  0.18431556  0.36048294  0.14073776    -0.82500
O49         O  0.21044222  0.43658134  0.24510022    -0.80800
O50         O  0.22175413  0.43403206  0.12370639    -0.85000
O51         O  0.28606087  0.41566261  0.15648993    -0.79900
O52         O  0.11836033  0.36305032  0.18107465    -0.81600
O53         O  0.26980068  0.52228671  0.21367702    -0.84400
C54         C  0.27609051  0.38028332  0.17227423     0.96400
C55         C  0.19745782  0.39009264  0.12011661     1.03800
O56         O  0.21582628  0.43355641  0.18426384    -1.13400
O57         O  0.18862908  0.50216049  0.17776571    -0.75800
O58         O  0.25403195  0.52310202  0.15277023    -0.79300
O59         O  0.24307272  0.36488136  0.19047817    -0.80000
C60         C  0.22076785  0.52976839  0.16075819     0.95300
O61         O  0.31375505  0.50131141  0.18861515    -0.77900
O62         O  0.12809178  0.41884857  0.21136325    -0.83100
C63         C  0.19152200  0.39299983  0.25002407     0.97900
C64         C  0.10181418  0.38156241  0.19760355     1.03800
O65         O  0.17506044  0.36247781  0.23031337    -0.78800
C66         C  0.30969279  0.52786297  0.20642640     1.02100
Fe67       Fe  0.19263888  0.46191927  0.46108652     1.65800
Fe68       Fe  0.26391173  0.46533793  0.40885783     1.73200
Fe69       Fe  0.18076355  0.36187148  0.43545150     1.54400
O70         O  0.17168822  0.35745444  0.48031219    -0.82500
O71         O  0.22231867  0.43305605  0.37483740    -0.80800
O72         O  0.20392484  0.43131676  0.49564579    -0.85000
O73         O  0.12238290  0.40907636  0.46147626    -0.79900
O74         O  0.24328259  0.36304101  0.44131126    -0.81600
O75         O  0.24721447  0.51912374  0.40475215    -0.84400
C76         C  0.09778041  0.37226136  0.44704164     0.96400
C77         C  0.18577520  0.38770792  0.00029724     1.03800
O78         O  0.21233992  0.42941001  0.43520233    -1.13400
O79         O  0.30763941  0.49902489  0.44193216    -0.75800
O80         O  0.26113165  0.51912137  0.46508462    -0.79300
O81         O  0.11639306  0.35663990  0.42989685    -0.80000
C82         C  0.30175109  0.52560665  0.45865742     0.95300
O83         O  0.17922681  0.49328295  0.42741941    -0.77900
O84         O  0.28738086  0.41636330  0.40875924    -0.83100
C85         C  0.19915869  0.38938659  0.37040587     0.97900
C86         C  0.27750272  0.38015652  0.42385510     1.03800
O87         O  0.18591314  0.35872494  0.39049212    -0.78800
C88         C  0.21114468  0.52253815  0.41090264     1.02100
Fe89       Fe  0.53171939  0.79693365  0.49276000     1.65800
Fe90       Fe  0.52955420  0.72935086  0.04766848     1.73200
Fe91       Fe  0.63379928  0.81923418  0.02336962     1.54400
O92         O  0.64198536  0.82459870  0.47862184    -0.82500
O93         O  0.56046723  0.76919878  0.08298142    -0.80800
O94         O  0.56891777  0.78746327  0.46117357    -0.85000
O95         O  0.57846912  0.86796402  0.49218862    -0.79900
O96         O  0.64040126  0.76023578  0.02182148    -0.81600
O97         O  0.47462898  0.74440636  0.05088883    -0.84400
C98         C  0.61297029  0.89608170  0.00724280     0.96400
C99         C  0.61317230  0.80583315  0.45808119     1.03800
O100        O  0.56528045  0.78213832  0.02159321    -1.13400
O101        O  0.49593406  0.68413630  0.01485953    -0.75800
O102        O  0.47754207  0.72864462  0.48861889    -0.79300
O103        O  0.63305040  0.88191262  0.02460645    -0.80000
C104        C  0.46968591  0.68880005  0.49704552     0.95300
O105        O  0.49306210  0.80675806  0.02312266    -0.77900
O106        O  0.57954731  0.70773530  0.04778856    -0.83100
C107        C  0.60376799  0.79634401  0.08815148     0.97900
C108        C  0.61946408  0.72201138  0.03593786     1.03800
O109        O  0.63457359  0.81664835  0.06839541    -0.78800
C110        C  0.46703503  0.77660329  0.04169143     1.02100
Fe111      Fe  0.53471593  0.79988407  0.24540490     1.65800
Fe112      Fe  0.53273988  0.73539882  0.30175477     1.73200
Fe113      Fe  0.63611361  0.81737843  0.27342987     1.54400
O114        O  0.64173657  0.82512103  0.22850583    -0.82500
O115        O  0.56689261  0.78081101  0.33418713    -0.80800
O116        O  0.56780395  0.78686080  0.21308552    -0.85000
O117        O  0.58631879  0.87114458  0.24457623    -0.79900
O118        O  0.63566851  0.75572761  0.26902726    -0.81600
O119        O  0.47875649  0.75122786  0.30491987    -0.84400
C120        C  0.62256774  0.89727447  0.25941985     0.96400
C121        C  0.61161543  0.80645481  0.20859976     1.03800
O122        O  0.56774158  0.78430472  0.27360851    -1.13400
O123        O  0.49593460  0.68691530  0.27106602    -0.75800
O124        O  0.47973559  0.73087004  0.24210042    -0.79300
O125        O  0.63927737  0.88061909  0.27738567    -0.80000
C126        C  0.47177340  0.69120382  0.25148049     0.95300
O127        O  0.49834026  0.81261828  0.27613209    -0.77900
O128        O  0.58228665  0.71312004  0.30212653    -0.83100
C129        C  0.61063820  0.80004725  0.33876735     0.97900
C130        C  0.61816093  0.72225797  0.28694932     1.03800
O131        O  0.64070908  0.81328679  0.31840240    -0.78800
C132        C  0.47198745  0.78345657  0.29504852     1.02100
Fe133      Fe  0.80128564  0.26384619  0.20116765     1.65800
Fe134      Fe  0.73287669  0.19578095  0.25549382     1.73200
Fe135      Fe  0.82098203  0.18167989  0.23012948     1.54400
O136        O  0.83240964  0.18620261  0.18540896    -0.82500
O137        O  0.77485674  0.20581360  0.28971907    -0.80800
O138        O  0.79461061  0.22112587  0.16808608    -0.85000
O139        O  0.87340927  0.28767819  0.20280063    -0.79900
O140        O  0.76096496  0.11750917  0.22497712    -0.81600
O141        O  0.74701809  0.26443066  0.26006802    -0.84400
C142        C  0.89974524  0.27856133  0.21817541     0.96400
C143        C  0.81757198  0.20014622  0.16446140     1.03800
O144        O  0.78488747  0.21369288  0.22891996    -1.13400
O145        O  0.68646271  0.18538547  0.22312717    -0.75800
O146        O  0.73193611  0.24645717  0.19521559    -0.79300
O147        O  0.88244358  0.24439444  0.23568448    -0.80000
C148        C  0.69154016  0.21502121  0.20394911     0.95300
O149        O  0.80810968  0.31057666  0.23223452    -0.77900
O150        O  0.71289195  0.12472849  0.25520006    -0.83100
C151        C  0.80101109  0.18862954  0.29464118     0.97900
C152        C  0.72507919  0.09941465  0.24123876     1.03800
O153        O  0.81604303  0.17294742  0.27490958    -0.78800
C154        C  0.77808325  0.30507986  0.25116851     1.02100
Fe155      Fe  0.80065294  0.26019005  0.45518402     1.65800
Fe156      Fe  0.73697143  0.19739295  0.01183563     1.73200
Fe157      Fe  0.81371540  0.17100793  0.48046040     1.54400
O158        O  0.81896311  0.17451688  0.43526660    -0.82500
O159        O  0.78449608  0.20559266  0.04273782    -0.80800
O160        O  0.78670865  0.21675585  0.42133816    -0.85000
O161        O  0.87104372  0.27808663  0.45408893    -0.79900
O162        O  0.74933728  0.11013168  0.47836811    -0.81600
O163        O  0.75595417  0.26756986  0.01598880    -0.84400
C164        C  0.89667554  0.26519312  0.46707595     0.96400
C165        C  0.80609056  0.19285109  0.41569401     1.03800
O166        O  0.78350231  0.20924168  0.48228124    -1.13400
O167        O  0.68710733  0.18966772  0.48277439    -0.75800
O168        O  0.73183725  0.24833758  0.45265465    -0.79300
O169        O  0.87956328  0.22884852  0.48280369    -0.80000
C170        C  0.69188728  0.21840987  0.46311084     0.95300
O171        O  0.81664997  0.30832466  0.48683023    -0.77900
O172        O  0.70958434  0.12529259  0.01108008    -0.83100
C173        C  0.80881054  0.18571388  0.04572915     0.97900
C174        C  0.71475560  0.09673671  0.49546176     1.03800
O175        O  0.81578097  0.16446771  0.02528902    -0.78800
C176        C  0.78798077  0.30631953  0.00560150     1.02100
Fe177      Fe  0.73398382  0.53459823  0.03152635     1.65800
Fe178      Fe  0.79991924  0.53323129  0.08578885     1.73200
Fe179      Fe  0.81898251  0.63598365  0.05880816     1.54400
O180        O  0.81495592  0.64163173  0.01394707    -0.82500
O181        O  0.78977516  0.56566467  0.11955206    -0.80800
O182        O  0.77857709  0.56813836  0.99817024    -0.85000
O183        O  0.71305590  0.58554605  0.03209432    -0.79900
O184        O  0.88202407  0.63762152  0.05384506    -0.81600
O185        O  0.72977113  0.47865367  0.08967043    -0.84400
C186        C  0.72306310  0.62116806  0.04742428     0.96400
C187        C  0.80074744  0.61195692  0.49367176     1.03800
O188        O  0.78420720  0.56800487  0.05881268    -1.13400
O189        O  0.81190286  0.49938831  0.05352583    -0.75800
O190        O  0.74781664  0.47896384  0.02775743    -0.79300
O191        O  0.75773839  0.63771449  0.06432258    -0.80000
C192        C  0.78064430  0.47196164  0.03639624     0.95300
O193        O  0.68611657  0.49848540  0.06306706    -0.77900
O194        O  0.87151706  0.58329426  0.08607403    -0.83100
C195        C  0.81092068  0.60944058  0.12379136     0.97900
C196        C  0.89823946  0.62022594  0.07166976     1.03800
O197        O  0.82746878  0.63967453  0.10353135    -0.78800
C198        C  0.69000316  0.47220958  0.08135960     1.02100
Fe199      Fe  0.79705325  0.53482921  0.33636095     1.69400
Fe200      Fe  0.72914388  0.53553281  0.28347649     1.73200
Fe201      Fe  0.81705231  0.63738821  0.30840309     1.54400
O202        O  0.82401977  0.64233484  0.35317608    -0.82500
O203        O  0.77139617  0.56623565  0.24886160    -0.80800
O204        O  0.78660148  0.56844349  0.36959558    -0.85000
O205        O  0.86926068  0.58486971  0.33662596    -0.79900
O206        O  0.75707062  0.64105238  0.31319258    -0.81600
O207        O  0.74228676  0.47988139  0.27958711    -0.84400
C208        C  0.89602026  0.62145538  0.32186894     0.96400
C209        C  0.80614989  0.61229882  0.37350320     1.03800
O210        O  0.78154989  0.56951347  0.30917359    -1.13400
O211        O  0.68398563  0.50336994  0.31707294    -0.75800
O212        O  0.72726136  0.48012664  0.34025040    -0.79300
O213        O  0.87959522  0.63843527  0.30403204    -0.80000
C214        C  0.68731921  0.47506795  0.33389126     0.95300
O215        O  0.80714024  0.49871002  0.30428958    -0.77900
O216        O  0.70881670  0.58618965  0.28324810    -0.83100
C217        C  0.79838752  0.60953492  0.24388620     0.97900
C218        C  0.72076989  0.62290485  0.29772115     1.03800
O219        O  0.81424262  0.64040676  0.26349096    -0.78800
C220        C  0.77531800  0.47234224  0.28686535     1.02100
Fe221      Fe  0.46355759  0.20068675  0.12332196     1.65800
Fe222      Fe  0.45982616  0.26630320  0.17629199     1.73200
Fe223      Fe  0.35939531  0.17886523  0.14940478     1.54400
O224        O  0.35751844  0.17335764  0.10441639    -0.82500
O225        O  0.42615341  0.22403603  0.21051812    -0.80800
O226        O  0.43259011  0.21383378  0.08993354    -0.85000
O227        O  0.41287029  0.12921520  0.12105853    -0.79900
O228        O  0.35435982  0.23781269  0.14408508    -0.81600
O229        O  0.51422489  0.25087012  0.18193981    -0.84400
C230        C  0.37673165  0.10189417  0.13592636     0.96400
C231        C  0.38889065  0.19369211  0.08493963     1.03800
O232        O  0.42738483  0.21521552  0.14989211    -1.13400
O233        O  0.49569605  0.31273317  0.14364435    -0.75800
O234        O  0.51949991  0.26995372  0.12058889    -0.79300
O235        O  0.36062684  0.11778016  0.15453935    -0.80000
C236        C  0.52392504  0.30953436  0.12667144     0.95300
O237        O  0.49634042  0.18774145  0.15605844    -0.77900
O238        O  0.40896986  0.28689929  0.17402291    -0.83100
C239        C  0.38256139  0.19661515  0.21460635     0.97900
C240        C  0.37218372  0.27442670  0.15907795     1.03800
O241        O  0.35291710  0.18037616  0.19423910    -0.78800
C242        C  0.52189276  0.21808215  0.17429748     1.02100
Fe243      Fe  0.46219823  0.19500388  0.37268382     1.65800
Fe244      Fe  0.46367291  0.26557480  0.42392810     1.73200
Fe245      Fe  0.36063955  0.17959704  0.39984917     1.54400
O246        O  0.35546256  0.16946904  0.35518534    -0.82500
O247        O  0.43287306  0.22449447  0.45868084    -0.80800
O248        O  0.42947484  0.20472987  0.33854313    -0.85000
O249        O  0.41047792  0.12383628  0.37382728    -0.79900
O250        O  0.35872219  0.24019771  0.39282187    -0.81600
O251        O  0.51878833  0.25099394  0.42798216    -0.84400
C252        C  0.37441903  0.09868439  0.38937883     0.96400
C253        C  0.38544469  0.18548338  0.33467973     1.03800
O254        O  0.42858125  0.21334087  0.39873347    -1.13400
O255        O  0.49656883  0.30933648  0.39034368    -0.75800
O256        O  0.51854937  0.26438213  0.36746128    -0.79300
O257        O  0.35862377  0.11694906  0.40665830    -0.80000
C258        C  0.52410005  0.30450059  0.37370802     0.95300
O259        O  0.49597927  0.18382961  0.40596441    -0.77900
O260        O  0.41306950  0.28697096  0.42347844    -0.83100
C261        C  0.38930608  0.20209323  0.46420370     0.97900
C262        C  0.37644639  0.27588788  0.40868742     1.03800
O263        O  0.35797088  0.18649078  0.44469813    -0.78800
C264        C  0.52432290  0.21633084  0.42214527     1.02100
C265        C  0.36775714  0.22153676  0.26150880    -0.02700
C266        C  0.36718016  0.18586675  0.24472982     0.07000
C267        C  0.36384900  0.14594098  0.25815530    -0.02800
C268        C  0.36500136  0.14354967  0.28821214    -0.02800
C269        C  0.36966112  0.18116508  0.30483143     0.07100
C270        C  0.36922302  0.21929139  0.29149391    -0.03000
Br271      Br  0.37529174  0.27050490  0.31432130    -0.01500
Br272      Br  0.37086161  0.27563439  0.24319674    -0.01600
Br273      Br  0.36475927  0.09087970  0.30660568    -0.01600
Br274      Br  0.36276533  0.09704560  0.23525258    -0.01600
C275        C  0.39225456  0.23868446  0.01077257    -0.02700
C276        C  0.37644497  0.19734803  0.49472899     0.07000
C277        C  0.35794542  0.15375878  0.00888551    -0.02800
C278        C  0.35706046  0.15174141  0.03900604    -0.02800
C279        C  0.37564993  0.19344986  0.05490503     0.07100
C280        C  0.39213930  0.23675020  0.04071969    -0.03000
Br281      Br  0.41864611  0.29411279  0.06241775    -0.01500
Br282      Br  0.41835010  0.29898458  0.49180227    -0.01600
Br283      Br  0.33637365  0.09268110  0.05834347    -0.01600
Br284      Br  0.34052737  0.09805069  0.48709678    -0.01600
C285        C  0.60245205  0.41053247  0.32792414    -0.02700
C286        C  0.64372841  0.43339138  0.34497765     0.07000
C287        C  0.64408339  0.41375281  0.37191592    -0.02800
C288        C  0.60477809  0.37158323  0.38109189    -0.02800
C289        C  0.56554436  0.34751703  0.36317962     0.07100
C290        C  0.56404802  0.36729947  0.33689935    -0.03000
Br291      Br  0.50855879  0.33496751  0.31353380    -0.01500
Br292      Br  0.59715964  0.43603209  0.29168813    -0.01600
Br293      Br  0.60436551  0.34778759  0.41891717    -0.01600
Br294      Br  0.69710481  0.44488471  0.39746606    -0.01600
C295        C  0.76528219  0.61561347  0.44766771    -0.02700
C296        C  0.80626458  0.62722825  0.46346001     0.07000
C297        C  0.84945683  0.64370947  0.44901814    -0.02800
C298        C  0.85059754  0.64371036  0.41887793    -0.02800
C299        C  0.80863571  0.62765107  0.40326356     0.07100
C300        C  0.76653305  0.61596903  0.41768500    -0.03000
Br301      Br  0.70966340  0.59676912  0.39620073    -0.01500
Br302      Br  0.70614633  0.59533470  0.46696460    -0.01600
Br303      Br  0.90844251  0.66022011  0.39914420    -0.01600
Br304      Br  0.90584299  0.66135419  0.47047044    -0.01600
C305        C  0.77671878  0.62399913  0.16672920    -0.02700
C306        C  0.81543375  0.62449204  0.15366833     0.07000
C307        C  0.85270524  0.62814811  0.17056492    -0.02800
C308        C  0.84952248  0.62816813  0.20061148    -0.02800
C309        C  0.80864072  0.62341207  0.21362721     0.07100
C310        C  0.77259375  0.62203883  0.19661433    -0.03000
Br311      Br  0.71484051  0.61160139  0.21405517    -0.01500
Br312      Br  0.72756883  0.62208472  0.14329842    -0.01600
Br313      Br  0.89840690  0.62924062  0.22399077    -0.01600
Br314      Br  0.90614473  0.62907987  0.15270524    -0.01600
C315        C  0.61809759  0.39400690  0.07454643    -0.02700
C316        C  0.64660335  0.43171728  0.09260327     0.07000
C317        C  0.63312309  0.43107279  0.12112189    -0.02800
C318        C  0.59098500  0.39295380  0.13170922    -0.02800
C319        C  0.56425134  0.35300291  0.11441290     0.07100
C320        C  0.57789548  0.35416633  0.08558122    -0.03000
Br321      Br  0.54072639  0.30233639  0.06042906    -0.01500
Br322      Br  0.63437475  0.39652302  0.03461609    -0.01600
Br323      Br  0.57118829  0.39704863  0.16995565    -0.01600
Br324      Br  0.67265318  0.48311818  0.14550000    -0.01600
C325        C  0.78510981  0.37829849  0.99199784    -0.02700
C326        C  0.78878565  0.34999697  0.01359794     0.07000
C327        C  0.78782283  0.36091851  0.04249426    -0.02800
C328        C  0.78415794  0.40028111  0.04977202    -0.02800
C329        C  0.78131961  0.42906096  0.02817465     0.07100
C330        C  0.78021219  0.41698211  0.99931911    -0.03000
Br331      Br  0.77126538  0.45280134  0.96972041    -0.01500
Br332      Br  0.78485591  0.36351485  0.95210639    -0.01600
Br333      Br  0.77930017  0.41226364  0.08963897    -0.01600
Br334      Br  0.79277471  0.32272344  0.07224615    -0.01600
C335        C  0.58474776  0.23329327  0.46048291    -0.02700
C336        C  0.56645052  0.21533370  0.43314210     0.07000
C337        C  0.59054871  0.19893738  0.41562749    -0.02800
C338        C  0.63115782  0.19936405  0.42569210    -0.02800
C339        C  0.64933260  0.21788276  0.45261430     0.07100
C340        C  0.62663541  0.23562207  0.46976797    -0.03000
Br341      Br  0.65422364  0.26517710  0.00560442    -0.01500
Br342      Br  0.55203297  0.25307643  0.48619822    -0.01600
Br343      Br  0.66219717  0.17419923  0.40279187    -0.01600
Br344      Br  0.57103982  0.17869859  0.37690881    -0.01600
C345        C  0.83877220  0.23114230  0.33893318    -0.02700
C346        C  0.81408175  0.18810242  0.32474425     0.07000
C347        C  0.79505440  0.14579109  0.34059155    -0.02800
C348        C  0.79720336  0.14684537  0.37076544    -0.02800
C349        C  0.81613547  0.19001999  0.38501913     0.07100
C350        C  0.83996985  0.23217205  0.36889486    -0.03000
Br351      Br  0.87453820  0.29193183  0.38762540    -0.01500
Br352      Br  0.86872428  0.28900835  0.31702709    -0.01600
Br353      Br  0.77294340  0.08947767  0.39240557    -0.01600
Br354      Br  0.76166773  0.08660040  0.32126583    -0.01600
C355        C  0.81315051  0.15128911  0.12182652    -0.02700
C356        C  0.82933131  0.19543513  0.13449974     0.07000
C357        C  0.85274702  0.23630741  0.11727666    -0.02800
C358        C  0.85307499  0.23262002  0.08743796    -0.02800
C359        C  0.82875048  0.18838708  0.07456236     0.07100
C360        C  0.81388348  0.14794732  0.09171668    -0.03000
Br361      Br  0.79571933  0.08886245  0.07406264    -0.01500
Br362      Br  0.78627382  0.09549383  0.14530465    -0.01600
Br363      Br  0.88689783  0.28792938  0.06369442    -0.01600
Br364      Br  0.88264577  0.29769106  0.13426219    -0.01600
C365        C  0.73308428  0.38591227  0.27593533    -0.02700
C366        C  0.77522546  0.42990437  0.27620959     0.07000
C367        C  0.81791493  0.43222734  0.26878949    -0.02800
C368        C  0.81933052  0.39100976  0.26349278    -0.02800
C369        C  0.77715116  0.34713033  0.26198056     0.07100
C370        C  0.73384473  0.34503882  0.26823237    -0.03000
Br371      Br  0.67417230  0.28685535  0.26590972    -0.01500
Br372      Br  0.67363593  0.38028562  0.28672366    -0.01600
Br373      Br  0.87986074  0.39507508  0.26134445    -0.01600
Br374      Br  0.87418206  0.49236081  0.26310685    -0.01600
C375        C  0.56353710  0.17437682  0.18806335    -0.02700
C376        C  0.56455158  0.21749710  0.18440635     0.07000
C377        C  0.60837081  0.25973726  0.18546018    -0.02800
C378        C  0.65041419  0.25889147  0.18921760    -0.02800
C379        C  0.64914296  0.21565692  0.19343141     0.07100
C380        C  0.60567737  0.17348907  0.19135574    -0.03000
Br381      Br  0.60424078  0.11437047  0.18923854    -0.01500
Br382      Br  0.50426990  0.11616647  0.19079843    -0.01600
Br383      Br  0.70933673  0.31813724  0.18756696    -0.01600
Br384      Br  0.61250256  0.31993933  0.18161651    -0.01600
C385        C  0.61830712  0.64628185  0.29377780    -0.02700
C386        C  0.64286183  0.69564088  0.29133580     0.07000
C387        C  0.69248184  0.72063302  0.29272898    -0.02800
C388        C  0.71748454  0.69656183  0.29289581    -0.02800
C389        C  0.69325636  0.64718916  0.29562024     0.07100
C390        C  0.64349719  0.62221418  0.29675727    -0.03000
Br391      Br  0.60953800  0.55547757  0.30372053    -0.01500
Br392      Br  0.55038500  0.61134083  0.29257983    -0.01600
Br393      Br  0.78497874  0.73210549  0.28695303    -0.01600
Br394      Br  0.72687412  0.78808839  0.29724083    -0.01600
C395        C  0.62376739  0.97379542  0.25425585    -0.02700
C396        C  0.64802075  0.94867351  0.25452883     0.07000
C397        C  0.69714781  0.97269811  0.24978343    -0.02800
C398        C  0.72207139  0.02160033  0.24545797    -0.02800
C399        C  0.69794548  0.04730545  0.24521656     0.07100
C400        C  0.64859377  0.02288940  0.25021277    -0.03000
Br401      Br  0.61361359  0.05550002  0.25214197    -0.01500
Br402      Br  0.55635813  0.94102236  0.26022957    -0.01600
Br403      Br  0.79006119  0.05260861  0.24239381    -0.01600
Br404      Br  0.73079982  0.93844272  0.24763459    -0.01600
C405        C  0.69249814  0.71893062  0.04683642    -0.02700
C406        C  0.64426083  0.69478418  0.03976976     0.07000
C407        C  0.62102701  0.64561149  0.03637642    -0.02800
C408        C  0.64615253  0.62119512  0.03912541    -0.02800
C409        C  0.69520316  0.64585129  0.04484050     0.07100
C410        C  0.71818653  0.69529544  0.04794903    -0.03000
Br411      Br  0.78600768  0.73300058  0.05114478    -0.01500
Br412      Br  0.72334441  0.78435732  0.05750815    -0.01600
Br413      Br  0.61225384  0.55378450  0.03539686    -0.01600
Br414      Br  0.55473378  0.61137623  0.02752186    -0.01600
C415        C  0.64039523  0.97525610  0.02809494    -0.02700
C416        C  0.63069144  0.94710966  0.00381253     0.07000
C417        C  0.63803622  0.96835962  0.47645488    -0.02800
C418        C  0.66316465  0.01763438  0.47376384    -0.02800
C419        C  0.68043263  0.04579730  0.49829317     0.07100
C420        C  0.66574124  0.02440132  0.02552859    -0.03000
Br421      Br  0.67999982  0.06123377  0.05977473    -0.01500
Br422      Br  0.61318100  0.94626808  0.06426759    -0.01600
Br423      Br  0.67054433  0.04660384  0.43671205    -0.01600
Br424      Br  0.61245078  0.93112305  0.44251866    -0.01600
C425        C  0.65786462  0.84572539  0.41296475    -0.02700
C426        C  0.62987662  0.80432249  0.42897197     0.07000
C427        C  0.60717575  0.76112252  0.41492574    -0.02800
C428        C  0.60427011  0.75988778  0.38508948    -0.02800
C429        C  0.62498561  0.80209437  0.36896697     0.07100
C430        C  0.65456370  0.84486186  0.38280792    -0.03000
Br431      Br  0.68661622  0.90238124  0.36099974    -0.01500
Br432      Br  0.70010799  0.90297577  0.43226067    -0.01600
Br433      Br  0.56938906  0.69982487  0.36683934    -0.01600
Br434      Br  0.57858463  0.70360729  0.43713490    -0.01600
C435        C  0.63894424  0.84593379  0.13193163    -0.02700
C436        C  0.61808103  0.80188054  0.11862365     0.07000
C437        C  0.60693603  0.76160308  0.13536097    -0.02800
C438        C  0.61323911  0.76529178  0.16513653    -0.02800
C439        C  0.62623906  0.80792378  0.17865285     0.07100
C440        C  0.64081026  0.84871279  0.16197785    -0.03000
Br441      Br  0.65837586  0.90737638  0.18021393    -0.01500
Br442      Br  0.66274312  0.90210679  0.10939075    -0.01600
Br443      Br  0.60310862  0.71201422  0.18803140    -0.01600
Br444      Br  0.58159782  0.70082100  0.11799567    -0.01600
C445        C  0.02289619  0.29563602  0.45368481    -0.02700
C446        C  0.04616443  0.34516083  0.45173299     0.07000
C447        C  0.02023377  0.36822676  0.45614658    -0.02800
C448        C  0.97193618  0.34213593  0.46284392    -0.02800
C449        C  0.94824553  0.29269241  0.46277729     0.07100
C450        C  0.97383645  0.26954708  0.45742254    -0.03000
Br451      Br  0.94205919  0.20216399  0.95301454    -0.01500
Br452      Br  0.05791033  0.26270962  0.45405454    -0.01600
Br453      Br  0.93900997  0.37458715  0.47358961    -0.01600
Br454      Br  0.04978473  0.43549035  0.45211294    -0.01600
C455        C  0.35344630  0.37834232  0.41714755    -0.02700
C456        C  0.30382569  0.35452254  0.41964784     0.07000
C457        C  0.27832996  0.30504076  0.41721151    -0.02800
C458        C  0.30200752  0.27976103  0.41334443    -0.02800
C459        C  0.35178233  0.30347794  0.41122556     0.07100
C460        C  0.37719650  0.35303856  0.41254103    -0.03000
Br461      Br  0.44442390  0.38683370  0.40619426    -0.01500
Br462      Br  0.38948124  0.44551632  0.42144403    -0.01600
Br463      Br  0.26486152  0.21191741  0.41203946    -0.01600
Br464      Br  0.21007232  0.27076964  0.41783347    -0.01600
C465        C  0.35452949  0.57351163  0.49810293    -0.02700
C466        C  0.34391575  0.56749525  0.46885741     0.07000
C467        C  0.37397037  0.60170918  0.44881585    -0.02800
C468        C  0.41514214  0.64158964  0.45792959    -0.02800
C469        C  0.42686360  0.64690805  0.48714154     0.07100
C470        C  0.39551438  0.61365790  0.00734057    -0.03000
Br471      Br  0.40570207  0.62501924  0.04785459    -0.01500
Br472      Br  0.31397981  0.52587959  0.02533987    -0.01600
Br473      Br  0.45471479  0.68887372  0.43013284    -0.01600
Br474      Br  0.35840461  0.59463442  0.40870144    -0.01600
C475        C  0.02790908  0.30905008  0.21179943    -0.02700
C476        C  0.05039259  0.35634036  0.20280635     0.07000
C477        C  0.02391435  0.37887637  0.19957174    -0.02800
C478        C  0.97505793  0.35430445  0.20535226    -0.02800
C479        C  0.95200876  0.30644502  0.21413997     0.07100
C480        C  0.97911044  0.28395782  0.21691203    -0.03000
Br481      Br  0.95042255  0.21749452  0.22538428    -0.01500
Br482      Br  0.06427703  0.27829443  0.21807842    -0.01600
Br483      Br  0.94102726  0.38760871  0.20111002    -0.01600
Br484      Br  0.05429897  0.44281346  0.18558270    -0.01600
C485        C  0.29789531  0.27874594  0.16203644    -0.02700
C486        C  0.34773319  0.30208326  0.16019154     0.07000
C487        C  0.37364964  0.35163811  0.16043216    -0.02800
C488        C  0.35054393  0.37745143  0.16458232    -0.02800
C489        C  0.30119062  0.35395043  0.16809083     0.07100
C490        C  0.27491091  0.30451503  0.16621044    -0.03000
Br491      Br  0.20662754  0.27117523  0.16818328    -0.01500
Br492      Br  0.25955220  0.21115600  0.15913920    -0.01600
Br493      Br  0.38708898  0.44502799  0.16657856    -0.01600
Br494      Br  0.44050709  0.38474279  0.15281096    -0.01600
C495        C  0.15008393  0.37739173  0.29664049    -0.02700
C496        C  0.18653663  0.37827639  0.28021442     0.07000
C497        C  0.22262903  0.37441997  0.29380991    -0.02800
C498        C  0.22331265  0.37182565  0.32385697    -0.02800
C499        C  0.18916501  0.37532638  0.34031602     0.07100
C500        C  0.15219238  0.37743291  0.32662519    -0.03000
Br501      Br  0.10768209  0.38601681  0.34895852    -0.01500
Br502      Br  0.09900561  0.37966899  0.27799326    -0.01600
Br503      Br  0.27359007  0.36814638  0.34260330    -0.01600
Br504      Br  0.27340113  0.37740062  0.27135605    -0.01600
C505        C  0.14715983  0.37217107  0.07713225    -0.02700
C506        C  0.18636808  0.37399342  0.09042123     0.07000
C507        C  0.22064858  0.37106948  0.07377913    -0.02800
C508        C  0.21840757  0.37153900  0.04379289    -0.02800
C509        C  0.18085355  0.37288446  0.03043008     0.07100
C510        C  0.14402148  0.37091574  0.04712943    -0.03000
Br511      Br  0.09128750  0.37061081  0.02891260    -0.01500
Br512      Br  0.10034871  0.37601120  0.10010091    -0.01600
Br513      Br  0.26951970  0.37619272  0.02087966    -0.01600
Br514      Br  0.27284857  0.37041884  0.09198733    -0.01600
C515        C  0.42975516  0.63793294  0.21092403    -0.02700
C516        C  0.43144089  0.64855420  0.24006744     0.07000
C517        C  0.39335668  0.61950897  0.25823264    -0.02800
C518        C  0.35444873  0.57887746  0.24751895    -0.02800
C519        C  0.35255030  0.56805524  0.21823913     0.07100
C520        C  0.39024111  0.59815311  0.19988617    -0.03000
Br521      Br  0.38678065  0.58801346  0.15913420    -0.01500
Br522      Br  0.48141621  0.67840045  0.18599215    -0.01600
Br523      Br  0.30423279  0.53799796  0.27337713    -0.01600
Br524      Br  0.39243161  0.63749528  0.29730570    -0.01600
C525        C  0.34719940  0.97392542  0.37417706    -0.02700
C526        C  0.29761785  0.94944711  0.37393504     0.07000
C527        C  0.27322811  0.97357569  0.37992060    -0.02800
C528        C  0.29823229  0.02207417  0.38514920    -0.02800
C529        C  0.34815430  0.04680183  0.38578304     0.07100
C530        C  0.37234898  0.02205193  0.38078722    -0.03000
Br531      Br  0.43990725  0.05294632  0.38430788    -0.01500
Br532      Br  0.38088280  0.94214253  0.36370077    -0.01600
Br533      Br  0.26272036  0.05405054  0.38964157    -0.01600
Br534      Br  0.20507469  0.94008992  0.38217226    -0.01600
C535        C  0.02207570  0.64844697  0.33458478    -0.02700
C536        C  0.04615028  0.69775545  0.33660519     0.07000
C537        C  0.02075428  0.72174494  0.33388766    -0.02800
C538        C  0.97176811  0.69661216  0.32978727    -0.02800
C539        C  0.94772503  0.64721984  0.32678421     0.07100
C540        C  0.97320608  0.62333739  0.32938920    -0.03000
Br541      Br  0.94186574  0.55629012  0.32511412    -0.01500
Br542      Br  0.05558671  0.61490475  0.34024431    -0.01600
Br543      Br  0.93778361  0.73057903  0.33059904    -0.01600
Br544      Br  0.05301675  0.78967194  0.33405184    -0.01600
C545        C  0.19391644  0.62873626  0.40913362    -0.02700
C546        C  0.21224804  0.64765311  0.38208939     0.07000
C547        C  0.22670921  0.62371951  0.36348945    -0.02800
C548        C  0.22353969  0.58122331  0.37219633    -0.02800
C549        C  0.20789289  0.56344150  0.40010611     0.07100
C550        C  0.19193406  0.58702494  0.41833009    -0.03000
Br551      Br  0.16873049  0.56446074  0.45649511    -0.01500
Br552      Br  0.17121519  0.66043113  0.43338842    -0.01600
Br553      Br  0.23759285  0.54602517  0.34498973    -0.01600
Br554      Br  0.25266217  0.64999904  0.32636298    -0.01600
C555        C  0.42434022  0.79319745  0.33327213    -0.02700
C556        C  0.43024593  0.78542802  0.30447750     0.07000
C557        C  0.39583161  0.77923932  0.28426725    -0.02800
C558        C  0.35729374  0.78399265  0.29239655    -0.02800
C559        C  0.35039187  0.79035380  0.32133403     0.07100
C560        C  0.38421058  0.79504673  0.34183454    -0.03000
Br561      Br  0.37536520  0.80185728  0.38200422    -0.01500
Br562      Br  0.47105012  0.80079162  0.36101238    -0.01600
Br563      Br  0.31592745  0.78496699  0.26347002    -0.01600
Br564      Br  0.39845131  0.75918065  0.24602636    -0.01600
C565        C  0.27550891  0.97688112  0.12717399    -0.02700
C566        C  0.29941880  0.95292788  0.11967669     0.07000
C567        C  0.34883842  0.97791670  0.11703355    -0.02800
C568        C  0.37449767  0.02632817  0.12286182    -0.02800
C569        C  0.35063511  0.05057377  0.13029545     0.07100
C570        C  0.30069363  0.02560371  0.13132175    -0.03000
Br571      Br  0.26522215  0.05761666  0.13610082    -0.01500
Br572      Br  0.20811209  0.94276633  0.13371663    -0.01600
Br573      Br  0.44234840  0.05822644  0.12139911    -0.01600
Br574      Br  0.38128132  0.94602139  0.10429242    -0.01600
C575        C  0.97186438  0.69467354  0.08349465    -0.02700
C576        C  0.94938483  0.64610379  0.07783408     0.07000
C577        C  0.97504293  0.62245074  0.08067531    -0.02800
C578        C  0.02295455  0.64736747  0.08833387    -0.02800
C579        C  0.04618211  0.69647618  0.09188839     0.07100
C580        C  0.02012221  0.71990807  0.08981505    -0.03000
Br581      Br  0.05003686  0.78723066  0.09435209    -0.01500
Br582      Br  0.93633234  0.72699149  0.08463289    -0.01600
Br583      Br  0.05581113  0.61356093  0.09580186    -0.01600
Br584      Br  0.94535586  0.55618473  0.07305694    -0.01600
C585        C  0.21565807  0.85011322  0.49655641    -0.02700
C586        C  0.17873475  0.81135349  0.01073885     0.07000
C587        C  0.14239811  0.77532892  0.49473136    -0.02800
C588        C  0.14518258  0.77609688  0.46469299    -0.02800
C589        C  0.18453075  0.81254503  0.45059799     0.07100
C590        C  0.21915557  0.85035975  0.46654804    -0.03000
Br591      Br  0.27379183  0.90036997  0.44779620    -0.01500
Br592      Br  0.26283162  0.90127750  0.01865474    -0.01600
Br593      Br  0.09727909  0.72534903  0.44278548    -0.01600
Br594      Br  0.09052931  0.72317771  0.01409339    -0.01600
C595        C  0.14713531  0.79286367  0.21446835    -0.02700
C596        C  0.19041497  0.82189404  0.20059554     0.07000
C597        C  0.23002565  0.85328454  0.21660994    -0.02800
C598        C  0.22710997  0.85370644  0.24648926    -0.02800
C599        C  0.18493375  0.82213582  0.26058909     0.07100
C600        C  0.14441375  0.79287478  0.24452488    -0.03000
Br601      Br  0.08709636  0.74810334  0.26371993    -0.01500
Br602      Br  0.09361426  0.74868723  0.19257190    -0.01600
Br603      Br  0.28244590  0.89379608  0.26853435    -0.01600
Br604      Br  0.28991690  0.89234418  0.19793500    -0.01600
C605        C  0.22421197  0.60440836  0.17351675    -0.02700
C606        C  0.22135106  0.57296970  0.15218842     0.07000
C607        C  0.21886976  0.58304297  0.12325360    -0.02800
C608        C  0.21706185  0.62341061  0.11571694    -0.02800
C609        C  0.21846560  0.65413925  0.13714875     0.07100
C610        C  0.22282040  0.64496525  0.16600335    -0.03000
Br611      Br  0.22536712  0.68700012  0.19540082    -0.01500
Br612      Br  0.23232348  0.59339312  0.21311859    -0.01600
Br613      Br  0.21465220  0.63722104  0.07575626    -0.01600
Br614      Br  0.21728221  0.54133033  0.09396792    -0.01600
C615        C  0.39309955  0.77879801  0.03243517    -0.02700
C616        C  0.42549310  0.77831693  0.05214584     0.07000
C617        C  0.41810477  0.77982140  0.08164345    -0.02800
C618        C  0.37970108  0.78373518  0.09139619    -0.02800
C619        C  0.34770694  0.78483851  0.07167688     0.07100
C620        C  0.35433600  0.78205669  0.04222393    -0.03000
Br621      Br  0.31079121  0.78392826  0.01524367    -0.01500
Br622      Br  0.39949488  0.77170888  0.99201787    -0.01600
Br623      Br  0.37028998  0.78555672  0.13199504    -0.01600
Br624      Br  0.46067980  0.77666933  0.10880354    -0.01600
Fe625      Fe  0.19561572  0.73672645  0.57945184     1.65800
Fe626      Fe  0.26434407  0.80535267  0.63170939     1.73200
Fe627      Fe  0.17692404  0.82004330  0.60595086     1.54400
O628        O  0.16774703  0.81540694  0.56109498    -0.82500
O629        O  0.22163305  0.79455609  0.66597576    -0.80800
O630        O  0.20540279  0.77917211  0.54527138    -0.85000
O631        O  0.12400846  0.71484523  0.57982199    -0.79900
O632        O  0.23663504  0.88399480  0.60013206    -0.81600
O633        O  0.25113825  0.73658546  0.63602828    -0.84400
C634        C  0.09799148  0.72402811  0.59541603     0.96400
C635        C  0.18455692  0.80215433  0.54088391     1.03800
O636        O  0.21265480  0.78793423  0.60552693    -1.13400
O637        O  0.31028416  0.81685645  0.59900546    -0.75800
O638        O  0.26509702  0.75132320  0.57512819    -0.79300
O639        O  0.11525845  0.75806410  0.61251467    -0.80000
C640        C  0.30539567  0.78492946  0.58212567     0.95300
O641        O  0.18463595  0.69205991  0.61262246    -0.77900
O642        O  0.28435593  0.87623628  0.63056821    -0.83100
C643        C  0.19744197  0.81402881  0.67054212     0.97900
C644        C  0.27244034  0.90147240  0.61614838     1.03800
O645        O  0.18191669  0.82890014  0.65049732    -0.78800
C646        C  0.21741163  0.69660505  0.62878227     1.02100
Fe647      Fe  0.19697735  0.73925664  0.82511291     1.65800
Fe648      Fe  0.26072686  0.80048297  0.88117621     1.73200
Fe649      Fe  0.17606245  0.81895389  0.85556268     1.54400
O650        O  0.16822220  0.81859879  0.81075078    -0.82500
O651        O  0.21641616  0.78651950  0.91519058    -0.80800
O652        O  0.20981165  0.78731080  0.79403529    -0.85000
O653        O  0.12482175  0.71736385  0.82489636    -0.79900
O654        O  0.23665517  0.88248650  0.85156760    -0.81600
O655        O  0.24663520  0.73062653  0.88257252    -0.84400
C656        C  0.09782576  0.72489829  0.84090169     0.96400
C657        C  0.18791500  0.80928700  0.79031051     1.03800
O658        O  0.21078689  0.78577718  0.85426429    -1.13400
O659        O  0.30840851  0.81690292  0.84890151    -0.75800
O660        O  0.26698323  0.75496143  0.82160290    -0.79300
O661        O  0.11384504  0.75692931  0.85947661    -0.80000
C662        C  0.30619300  0.78788914  0.83066575     0.95300
O663        O  0.18462860  0.68860121  0.85459884    -0.77900
O664        O  0.28084059  0.87146149  0.88306203    -0.83100
C665        C  0.19353509  0.80724739  0.92031206     0.97900
C666        C  0.27074763  0.89830522  0.86883075     1.03800
O667        O  0.17966474  0.82432628  0.90054939    -0.78800
C668        C  0.21448048  0.69149683  0.87273490     1.02100
Fe669      Fe  0.26649813  0.46693791  0.65670150     1.65800
Fe670      Fe  0.19994685  0.46838511  0.71065458     1.73200
Fe671      Fe  0.18175571  0.36580934  0.68552051     1.54400
O672        O  0.18431317  0.36048204  0.64073647    -0.82500
O673        O  0.21045075  0.43657598  0.74510207    -0.80800
O674        O  0.22175663  0.43403155  0.62370660    -0.85000
O675        O  0.28605805  0.41565658  0.65649263    -0.79900
O676        O  0.11836104  0.36305840  0.68107226    -0.81600
O677        O  0.26980576  0.52228357  0.71367974    -0.84400
C678        C  0.27608432  0.38027531  0.67227599     0.96400
C679        C  0.19746004  0.39009259  0.62011545     1.03800
O680        O  0.21582726  0.43355385  0.68426547    -1.13400
O681        O  0.18863252  0.50215894  0.67777150    -0.75800
O682        O  0.25403269  0.52309861  0.65277278    -0.79300
O683        O  0.24306392  0.36487210  0.69047826    -0.80000
C684        C  0.22076931  0.52976531  0.66076225     0.95300
O685        O  0.31375771  0.50130734  0.68861653    -0.77900
O686        O  0.12809573  0.41884634  0.71136997    -0.83100
C687        C  0.19152385  0.39299368  0.75002523     0.97900
C688        C  0.10181629  0.38156581  0.69760585     1.03800
O689        O  0.17505309  0.36247287  0.73031380    -0.78800
C690        C  0.30969726  0.52785972  0.70642794     1.02100
Fe691      Fe  0.19264046  0.46192767  0.96109160     1.65800
Fe692      Fe  0.26391310  0.46534322  0.90886301     1.73200
Fe693      Fe  0.18075973  0.36187751  0.93545537     1.54400
O694        O  0.17168431  0.35746080  0.98031569    -0.82500
O695        O  0.22232453  0.43306179  0.87484018    -0.80800
O696        O  0.20392526  0.43132309  0.99565008    -0.85000
O697        O  0.12238418  0.40908676  0.96148172    -0.79900
O698        O  0.24327633  0.36304225  0.94131553    -0.81600
O699        O  0.24721612  0.51912946  0.90475619    -0.84400
C700        C  0.09778007  0.37227083  0.94704824     0.96400
C701        C  0.18577830  0.38770209  0.50029350     1.03800
O702        O  0.21233890  0.42941655  0.93520643    -1.13400
O703        O  0.30763902  0.49902943  0.94193825    -0.75800
O704        O  0.26113321  0.51912878  0.96508991    -0.79300
O705        O  0.11639000  0.35664843  0.92990196    -0.80000
C706        C  0.30175197  0.52561263  0.95866283     0.95300
O707        O  0.17923031  0.49329418  0.92742563    -0.77900
O708        O  0.28738131  0.41636779  0.90876675    -0.83100
C709        C  0.19916340  0.38939222  0.87040870     0.97900
C710        C  0.27749908  0.38015863  0.92386132     1.03800
O711        O  0.18591030  0.35873094  0.89049573    -0.78800
C712        C  0.21114878  0.52254751  0.91090837     1.02100
Fe713      Fe  0.53172587  0.79693842  0.99276176     1.65800
Fe714      Fe  0.52954995  0.72934660  0.54766670     1.73200
Fe715      Fe  0.63379343  0.81923213  0.52336829     1.54400
O716        O  0.64199160  0.82460123  0.97862276    -0.82500
O717        O  0.56046279  0.76919425  0.58298006    -0.80800
O718        O  0.56892371  0.78746799  0.96117480    -0.85000
O719        O  0.57847653  0.86796801  0.99219057    -0.79900
O720        O  0.64039794  0.76023534  0.52181979    -0.81600
O721        O  0.47462397  0.74440083  0.55088735    -0.84400
C722        C  0.61296229  0.89607808  0.50724125     0.96400
C723        C  0.61317823  0.80583743  0.95808196     1.03800
O724        O  0.56527476  0.78213472  0.52159173    -1.13400
O725        O  0.49592958  0.68413188  0.51485748    -0.75800
O726        O  0.47754727  0.72864953  0.98862092    -0.79300
O727        O  0.63304222  0.88190922  0.52460513    -0.80000
C728        C  0.46969030  0.68880469  0.99704794     0.95300
O729        O  0.49305390  0.80675141  0.52312054    -0.77900
O730        O  0.57954477  0.70773283  0.54778624    -0.83100
C731        C  0.60376332  0.79634136  0.58815006     0.97900
C732        C  0.61946181  0.72201030  0.53593562     1.03800
O733        O  0.63456839  0.81664684  0.56839393    -0.78800
C734        C  0.46702817  0.77659643  0.54168964     1.02100
Fe735      Fe  0.53471827  0.79988714  0.74540305     1.65800
Fe736      Fe  0.53274086  0.73540329  0.80175393     1.73200
Fe737      Fe  0.63611571  0.81737974  0.77342896     1.54400
O738        O  0.64173878  0.82511987  0.72850460    -0.82500
O739        O  0.56689334  0.78081698  0.83418601    -0.80800
O740        O  0.56780601  0.78686275  0.71308435    -0.85000
O741        O  0.58632148  0.87114781  0.74457489    -0.79900
O742        O  0.63566933  0.75572794  0.76902816    -0.81600
O743        O  0.47875708  0.75123261  0.80491735    -0.84400
C744        C  0.62257111  0.89727721  0.75941830     0.96400
C745        C  0.61161717  0.80645482  0.70859857     1.03800
O746        O  0.56774352  0.78430800  0.77360733    -1.13400
O747        O  0.49593716  0.68691939  0.77106501    -0.75800
O748        O  0.47973787  0.73087279  0.74209834    -0.79300
O749        O  0.63928194  0.88062158  0.77738305    -0.80000
C750        C  0.47177640  0.69120692  0.75147874     0.95300
O751        O  0.49834136  0.81262223  0.77612897    -0.77900
O752        O  0.58228683  0.71312311  0.80212772    -0.83100
C753        C  0.61063885  0.80005235  0.83876680     0.97900
C754        C  0.61816100  0.72225933  0.78695091     1.03800
O755        O  0.64071007  0.81329021  0.81840203    -0.78800
C756        C  0.47198783  0.78346087  0.79504526     1.02100
Fe757      Fe  0.80128768  0.26385013  0.70116882     1.65800
Fe758      Fe  0.73287991  0.19578557  0.75549603     1.73200
Fe759      Fe  0.82098199  0.18168085  0.73012935     1.54400
O760        O  0.83240637  0.18620168  0.68540843    -0.82500
O761        O  0.77486115  0.20581665  0.78972025    -0.80800
O762        O  0.79461254  0.22113074  0.66808631    -0.85000
O763        O  0.87341099  0.28768160  0.70280146    -0.79900
O764        O  0.76096303  0.11751130  0.72497845    -0.81600
O765        O  0.74702262  0.26443539  0.76007076    -0.84400
C766        C  0.89974694  0.27856249  0.71817469     0.96400
C767        C  0.81757062  0.20014780  0.66446110     1.03800
O768        O  0.78488945  0.21369627  0.72892105    -1.13400
O769        O  0.68646471  0.18539135  0.72313045    -0.75800
O770        O  0.73193802  0.24646054  0.69521700    -0.79300
O771        O  0.88244582  0.24439390  0.73568257    -0.80000
C772        C  0.69154217  0.21502526  0.70395104     0.95300
O773        O  0.80811234  0.31058136  0.73223595    -0.77900
O774        O  0.71289308  0.12473283  0.75520268    -0.83100
C775        C  0.80101586  0.18863281  0.79464194     0.97900
C776        C  0.72507888  0.09941801  0.74124140     1.03800
O777        O  0.81604647  0.17294989  0.77490994    -0.78800
C778        C  0.77808722  0.30508478  0.75117058     1.02100
Fe779      Fe  0.80065248  0.26019093  0.95518405     1.65800
Fe780      Fe  0.73697153  0.19738913  0.51183508     1.73200
Fe781      Fe  0.81371552  0.17101193  0.98046256     1.54400
O782        O  0.81896954  0.17452436  0.93526841    -0.82500
O783        O  0.78449536  0.20558744  0.54273723    -0.80800
O784        O  0.78670363  0.21675232  0.92134022    -0.85000
O785        O  0.87104400  0.27808593  0.95408920    -0.79900
O786        O  0.74933816  0.11013599  0.97836788    -0.81600
O787        O  0.75595288  0.26756545  0.51598926    -0.84400
C788        C  0.89667512  0.26519674  0.96708151     0.96400
C789        C  0.80609211  0.19285400  0.91569560     1.03800
O790        O  0.78350149  0.20924436  0.98228219    -1.13400
O791        O  0.68710675  0.18967113  0.98277472    -0.75800
O792        O  0.73183732  0.24834031  0.95265473    -0.79300
O793        O  0.87956057  0.22885442  0.98281114    -0.80000
C794        C  0.69188703  0.21841302  0.96311082     0.95300
O795        O  0.81665118  0.30832754  0.98682915    -0.77900
O796        O  0.70958343  0.12528915  0.51107956    -0.83100
C797        C  0.80881259  0.18571144  0.54572804     0.97900
C798        C  0.71475681  0.09674038  0.99546203     1.03800
O799        O  0.81578624  0.16446818  0.52528736    -0.78800
C800        C  0.78797872  0.30631562  0.50560227     1.02100
Fe801      Fe  0.73398139  0.53459561  0.53152369     1.65800
Fe802      Fe  0.79991227  0.53322666  0.58578855     1.73200
Fe803      Fe  0.81897933  0.63598003  0.55880756     1.54400
O804        O  0.81495647  0.64162936  0.51394621    -0.82500
O805        O  0.78976617  0.56565969  0.61955153    -0.80800
O806        O  0.77857711  0.56813636  0.49816878    -0.85000
O807        O  0.71305353  0.58554351  0.53209134    -0.79900
O808        O  0.88202023  0.63761565  0.55384631    -0.81600
O809        O  0.72976426  0.47864982  0.58966795    -0.84400
C810        C  0.72306069  0.62116597  0.54742078     0.96400
C811        C  0.80074588  0.61195890  0.99367283     1.03800
O812        O  0.78420266  0.56800123  0.55881159    -1.13400
O813        O  0.81189771  0.49938370  0.55352601    -0.75800
O814        O  0.74781422  0.47896119  0.52775511    -0.79300
O815        O  0.75773573  0.63771310  0.56431955    -0.80000
C816        C  0.78064066  0.47195807  0.53639518     0.95300
O817        O  0.68611161  0.49848172  0.56306282    -0.77900
O818        O  0.87150997  0.58328892  0.58607621    -0.83100
C819        C  0.81091302  0.60943561  0.62379126     0.97900
C820        C  0.89823404  0.62022022  0.57167226     1.03800
O821        O  0.82746259  0.63966979  0.60353131    -0.78800
C822        C  0.68999707  0.47220596  0.58135585     1.02100
Fe823      Fe  0.79705046  0.53483234  0.83636552     1.69400
Fe824      Fe  0.72914416  0.53553428  0.78347847     1.73200
Fe825      Fe  0.81705196  0.63738952  0.80840443     1.54400
O826        O  0.82402125  0.64233910  0.85317732    -0.82500
O827        O  0.77139679  0.56623564  0.74886337    -0.80800
O828        O  0.78659661  0.56844867  0.86959784    -0.85000
O829        O  0.86925784  0.58487338  0.83663110    -0.79900
O830        O  0.75706967  0.64105226  0.81319469    -0.81600
O831        O  0.74228826  0.47988338  0.77959087    -0.84400
C832        C  0.89601827  0.62145679  0.82187262     0.96400
C833        C  0.80614789  0.61230431  0.87350480     1.03800
O834        O  0.78154923  0.56951519  0.80917592    -1.13400
O835        O  0.68398505  0.50337339  0.81707462    -0.75800
O836        O  0.72725823  0.48012988  0.84025477    -0.79300
O837        O  0.87959395  0.63843455  0.80403351    -0.80000
C838        C  0.68731687  0.47507210  0.83389435     0.95300
O839        O  0.80713918  0.49871133  0.80429624    -0.77900
O840        O  0.70881686  0.58619118  0.78324908    -0.83100
C841        C  0.79838658  0.60953495  0.74388736     0.97900
C842        C  0.72076920  0.62290537  0.79772312     1.03800
O843        O  0.81424109  0.64040712  0.76349199    -0.78800
C844        C  0.77531897  0.47234428  0.78687076     1.02100
Fe845      Fe  0.46355468  0.20068406  0.62331985     1.65800
Fe846      Fe  0.45982529  0.26630006  0.67629089     1.73200
Fe847      Fe  0.35939335  0.17886307  0.64940398     1.54400
O848        O  0.35751462  0.17335572  0.60441571    -0.82500
O849        O  0.42615361  0.22403268  0.71051708    -0.80800
O850        O  0.43258588  0.21383164  0.58993244    -0.85000
O851        O  0.41286755  0.12921207  0.62105684    -0.79900
O852        O  0.35435927  0.23781116  0.64408464    -0.81600
O853        O  0.51422472  0.25086735  0.68193710    -0.84400
C854        C  0.37672881  0.10189088  0.63592488     0.96400
C855        C  0.38888643  0.19369127  0.58493892     1.03800
O856        O  0.42738296  0.21521243  0.64989098    -1.13400
O857        O  0.49569357  0.31273042  0.64364322    -0.75800
O858        O  0.51949639  0.26995116  0.62058658    -0.79300
O859        O  0.36062343  0.11777680  0.65453754    -0.80000
C860        C  0.52392154  0.30953179  0.62666951     0.95300
O861        O  0.49633968  0.18773904  0.65605511    -0.77900
O862        O  0.40896868  0.28689579  0.67402344    -0.83100
C863        C  0.38256122  0.19661409  0.71460558     0.97900
C864        C  0.37218252  0.27442378  0.65907870     1.03800
O865        O  0.35291665  0.18037508  0.69423842    -0.78800
C866        C  0.52189296  0.21808000  0.67429374     1.02100
Fe867      Fe  0.46219647  0.19501049  0.87268165     1.65800
Fe868      Fe  0.46366775  0.26557526  0.92392884     1.73200
Fe869      Fe  0.36063580  0.17959661  0.89984928     1.54400
O870        O  0.35545784  0.16946983  0.85518521    -0.82500
O871        O  0.43286995  0.22449172  0.95868064    -0.80800
O872        O  0.42946991  0.20473617  0.83854239    -0.85000
O873        O  0.41047827  0.12384214  0.87382390    -0.79900
O874        O  0.35871418  0.24019568  0.89282399    -0.81600
O875        O  0.51878616  0.25099808  0.92798081    -0.84400
C876        C  0.37441978  0.09868839  0.88937535     0.96400
C877        C  0.38543938  0.18548638  0.83467932     1.03800
O878        O  0.42857777  0.21334305  0.89873301    -1.13400
O879        O  0.49656182  0.30934027  0.89034568    -0.75800
O880        O  0.51854486  0.26439018  0.86746051    -0.79300
O881        O  0.35862462  0.11695075  0.90665662    -0.80000
C882        C  0.52409432  0.30450734  0.87370954     0.95300
O883        O  0.49598215  0.18383701  0.90596033    -0.77900
O884        O  0.41306122  0.28696756  0.92348101    -0.83100
C885        C  0.38930319  0.20208986  0.96420387     0.97900
C886        C  0.37643799  0.27588510  0.90869034     1.03800
O887        O  0.35796750  0.18648806  0.94469856    -0.78800
C888        C  0.52432432  0.21633777  0.92214226     1.02100
C889        C  0.36775858  0.22154015  0.76150718    -0.02700
C890        C  0.36717973  0.18586827  0.74472912     0.07000
C891        C  0.36384431  0.14594134  0.75815552    -0.02800
C892        C  0.36499314  0.14354989  0.78821251    -0.02800
C893        C  0.36965504  0.18116694  0.80483104     0.07100
C894        C  0.36922097  0.21929453  0.79149244    -0.03000
Br895      Br  0.37528895  0.27050857  0.81431898    -0.01500
Br896      Br  0.37087157  0.27564099  0.74319409    -0.01600
Br897      Br  0.36474285  0.09087683  0.80660731    -0.01600
Br898      Br  0.36276164  0.09704528  0.73525394    -0.01600
C899        C  0.39226147  0.23868942  0.51077258    -0.02700
C900        C  0.37644305  0.19734350  0.99472932     0.07000
C901        C  0.35793769  0.15376190  0.50888476    -0.02800
C902        C  0.35704950  0.15174343  0.53900529    -0.02800
C903        C  0.37564553  0.19345191  0.55490464     0.07100
C904        C  0.39214208  0.23675372  0.54071970    -0.03000
Br905      Br  0.41865128  0.29411557  0.56241865    -0.01500
Br906      Br  0.41833121  0.29897780  0.99180153    -0.01600
Br907      Br  0.33634751  0.09268011  0.55834252    -0.01600
Br908      Br  0.34054400  0.09804938  0.98709766    -0.01600
C909        C  0.60244911  0.41053880  0.82792661    -0.02700
C910        C  0.64372459  0.43339757  0.84498091     0.07000
C911        C  0.64407656  0.41376127  0.87192052    -0.02800
C912        C  0.60476955  0.37159324  0.88109673    -0.02800
C913        C  0.56553828  0.34752533  0.86318281     0.07100
C914        C  0.56404442  0.36730621  0.83690150    -0.03000
Br915      Br  0.50855712  0.33497309  0.81353444    -0.01500
Br916      Br  0.59715776  0.43603867  0.79169053    -0.01600
Br917      Br  0.60435115  0.34780251  0.91892441    -0.01600
Br918      Br  0.69709602  0.44489447  0.89747190    -0.01600
C919        C  0.76527556  0.61560782  0.94766903    -0.02700
C920        C  0.80625997  0.62722992  0.96346110     0.07000
C921        C  0.84945394  0.64372223  0.94901920    -0.02800
C922        C  0.85059510  0.64372550  0.91887893    -0.02800
C923        C  0.80863188  0.62765768  0.90326472     0.07100
C924        C  0.76652697  0.61596645  0.91768637    -0.03000
Br925      Br  0.70965576  0.59675897  0.89620210    -0.01500
Br926      Br  0.70613703  0.59531567  0.96696587    -0.01600
Br927      Br  0.90844377  0.66025056  0.89914497    -0.01600
Br928      Br  0.90584292  0.66137901  0.97047131    -0.01600
C929        C  0.77671334  0.62399567  0.66673027    -0.02700
C930        C  0.81542698  0.62448692  0.65366860     0.07000
C931        C  0.85269970  0.62814440  0.67056465    -0.02800
C932        C  0.84951926  0.62816707  0.70061133    -0.02800
C933        C  0.80863829  0.62341144  0.71362795     0.07100
C934        C  0.77259061  0.62203792  0.69661561    -0.03000
Br935      Br  0.71484030  0.61160594  0.71405781    -0.01500
Br936      Br  0.72756304  0.62208229  0.64330041    -0.01600
Br937      Br  0.89840718  0.62924539  0.72398986    -0.01600
Br938      Br  0.90613845  0.62907576  0.65270430    -0.01600
C939        C  0.61809189  0.39400324  0.57454318    -0.02700
C940        C  0.64659711  0.43171455  0.59259948     0.07000
C941        C  0.63311775  0.43107094  0.62111812    -0.02800
C942        C  0.59098040  0.39295202  0.63170610    -0.02800
C943        C  0.56424689  0.35300024  0.61441027     0.07100
C944        C  0.57789077  0.35416258  0.58557864    -0.03000
Br945      Br  0.54072391  0.30233030  0.56042752    -0.01500
Br946      Br  0.63436925  0.39651774  0.53461298    -0.01600
Br947      Br  0.57118614  0.39704756  0.66995309    -0.01600
Br948      Br  0.67264904  0.48311706  0.64549556    -0.01600
C949        C  0.78510711  0.37829406  0.49199781    -0.02700
C950        C  0.78878164  0.34999237  0.51359837     0.07000
C951        C  0.78781574  0.36091311  0.54249455    -0.02800
C952        C  0.78414980  0.40027540  0.54977166    -0.02800
C953        C  0.78131573  0.42905704  0.52817387     0.07100
C954        C  0.78021102  0.41697887  0.49931839    -0.03000
Br955      Br  0.77126993  0.45280061  0.46971880    -0.01500
Br956      Br  0.78485108  0.36350790  0.45210661    -0.01600
Br957      Br  0.77928353  0.41225458  0.58963806    -0.01600
Br958      Br  0.79276424  0.32271722  0.57224725    -0.01600
C959        C  0.58475145  0.23330369  0.96047983    -0.02700
C960        C  0.56645344  0.21534258  0.93313919     0.07000
C961        C  0.59055154  0.19894512  0.91562535    -0.02800
C962        C  0.63115813  0.19936786  0.92569141    -0.02800
C963        C  0.64933268  0.21788660  0.95261367     0.07100
C964        C  0.62663738  0.23562948  0.96976598    -0.03000
Br965      Br  0.65422158  0.26516971  0.50560639    -0.01500
Br966      Br  0.55204192  0.25309572  0.98619325    -0.01600
Br967      Br  0.66219385  0.17419669  0.90279339    -0.01600
Br968      Br  0.57104823  0.17871327  0.87690507    -0.01600
C969        C  0.83876694  0.23114980  0.83893435    -0.02700
C970        C  0.81408951  0.18810895  0.82474504     0.07000
C971        C  0.79507504  0.14579839  0.84059237    -0.02800
C972        C  0.79722194  0.14685311  0.87076654    -0.02800
C973        C  0.81613934  0.19002671  0.88502038     0.07100
C974        C  0.83996148  0.23217988  0.86889603    -0.03000
Br975      Br  0.87450664  0.29194262  0.88762623    -0.01500
Br976      Br  0.86870565  0.28901643  0.81702842    -0.01600
Br977      Br  0.77297665  0.08948662  0.89240674    -0.01600
Br978      Br  0.76170849  0.08660634  0.82126632    -0.01600
C979        C  0.81314937  0.15128930  0.62182632    -0.02700
C980        C  0.82932865  0.19543557  0.63449904     0.07000
C981        C  0.85274489  0.23630739  0.61727548    -0.02800
C982        C  0.85307470  0.23261916  0.58743683    -0.02800
C983        C  0.82875269  0.18838589  0.57456150     0.07100
C984        C  0.81388576  0.14794693  0.59171655    -0.03000
Br985      Br  0.79572969  0.08886318  0.57406354    -0.01500
Br986      Br  0.78627007  0.09549416  0.64530466    -0.01600
Br987      Br  0.88689658  0.28792788  0.56369265    -0.01600
Br988      Br  0.88264331  0.29769163  0.63426021    -0.01600
C989        C  0.73308694  0.38591527  0.77593929    -0.02700
C990        C  0.77522809  0.42990726  0.77621513     0.07000
C991        C  0.81791830  0.43223077  0.76879619    -0.02800
C992        C  0.81933407  0.39101356  0.76349814    -0.02800
C993        C  0.77715446  0.34713454  0.76198337     0.07100
C994        C  0.73384786  0.34504287  0.76823434    -0.03000
Br995      Br  0.67417544  0.28686036  0.76590754    -0.01500
Br996      Br  0.67363853  0.38028744  0.78672923    -0.01600
Br997      Br  0.87986370  0.39507763  0.76135204    -0.01600
Br998      Br  0.87418691  0.49236473  0.76311781    -0.01600
C999        C  0.56353911  0.17437654  0.68806091    -0.02700
C1000       C  0.56455302  0.21749616  0.68440126     0.07000
C1001       C  0.60837216  0.25973671  0.68545259    -0.02800
C1002       C  0.65041562  0.25889229  0.68921330    -0.02800
C1003       C  0.64914471  0.21565869  0.69343149     0.07100
C1004       C  0.60567958  0.17349005  0.69135660    -0.03000
Br1005     Br  0.60424391  0.11437120  0.68924622    -0.01500
Br1006     Br  0.50427253  0.11616522  0.69079349    -0.01600
Br1007     Br  0.70933776  0.31813845  0.68756160    -0.01600
Br1008     Br  0.61250383  0.31993740  0.68159851    -0.01600
C1009       C  0.61830628  0.64628253  0.79377842    -0.02700
C1010       C  0.64286119  0.69564176  0.79133865     0.07000
C1011       C  0.69248090  0.72063377  0.79273452    -0.02800
C1012       C  0.71748388  0.69656285  0.79290191    -0.02800
C1013       C  0.69325544  0.64718965  0.79562306     0.07100
C1014       C  0.64349607  0.62221446  0.79675765    -0.03000
Br1015     Br  0.60953582  0.55547690  0.80371725    -0.01500
Br1016     Br  0.55038436  0.61134208  0.79257746    -0.01600
Br1017     Br  0.78497947  0.73210832  0.78696481    -0.01600
Br1018     Br  0.72687206  0.78808863  0.79724840    -0.01600
C1019       C  0.62376938  0.97379816  0.75426072    -0.02700
C1020       C  0.64802298  0.94867652  0.75452890     0.07000
C1021       C  0.69714976  0.97270217  0.74978243    -0.02800
C1022       C  0.72207273  0.02160501  0.74546035    -0.02800
C1023       C  0.69794595  0.04730917  0.74522050     0.07100
C1024       C  0.64859476  0.02289245  0.75021893    -0.03000
Br1025     Br  0.61361444  0.05550247  0.75215429    -0.01500
Br1026     Br  0.55636144  0.94102403  0.76024007    -0.01600
Br1027     Br  0.79006326  0.05261586  0.74240083    -0.01600
Br1028     Br  0.73080212  0.93844780  0.74762757    -0.01600
C1029       C  0.69249963  0.71893086  0.54682701    -0.02700
C1030       C  0.64425972  0.69478353  0.53976601     0.07000
C1031       C  0.62102416  0.64560975  0.53637661    -0.02800
C1032       C  0.64614948  0.62119308  0.53912533    -0.02800
C1033       C  0.69520147  0.64584968  0.54483580     0.07100
C1034       C  0.71818709  0.69529463  0.54793877    -0.03000
Br1035     Br  0.78600972  0.73299781  0.55112513    -0.01500
Br1036     Br  0.72335221  0.78436057  0.55749254    -0.01600
Br1037     Br  0.61224932  0.55378157  0.53540286    -0.01600
Br1038     Br  0.55472891  0.61137299  0.52752739    -0.01600
C1039       C  0.64039233  0.97525281  0.52809418    -0.02700
C1040       C  0.63068351  0.94710627  0.50381134     0.07000
C1041       C  0.63804613  0.96836217  0.97645571    -0.02800
C1042       C  0.66317265  0.01763678  0.97376416    -0.02800
C1043       C  0.68043496  0.04580057  0.99829354     0.07100
C1044       C  0.66574208  0.02439789  0.52552823    -0.03000
Br1045     Br  0.68001105  0.06123039  0.55977490    -0.01500
Br1046     Br  0.61317972  0.94626597  0.56426716    -0.01600
Br1047     Br  0.67055841  0.04660436  0.93671094    -0.01600
Br1048     Br  0.61246521  0.93112421  0.94251958    -0.01600
C1049       C  0.65787053  0.84572915  0.91296455    -0.02700
C1050       C  0.62988148  0.80432676  0.92897212     0.07000
C1051       C  0.60717746  0.76112716  0.91492572    -0.02800
C1052       C  0.60426781  0.75989262  0.88508959    -0.02800
C1053       C  0.62498539  0.80209911  0.86896687     0.07100
C1054       C  0.65456753  0.84486588  0.88280765    -0.03000
Br1055     Br  0.68662365  0.90238488  0.86099928    -0.01500
Br1056     Br  0.70012085  0.90297763  0.93225992    -0.01600
Br1057     Br  0.56937826  0.69982995  0.86684029    -0.01600
Br1058     Br  0.57858884  0.70361208  0.93713491    -0.01600
C1059       C  0.63893890  0.84593226  0.63192997    -0.02700
C1060       C  0.61807707  0.80187889  0.61862220     0.07000
C1061       C  0.60693470  0.76160233  0.63535970    -0.02800
C1062       C  0.61324115  0.76529232  0.66513506    -0.02800
C1063       C  0.62623942  0.80792406  0.67865136     0.07100
C1064       C  0.64080429  0.84871167  0.66197612    -0.03000
Br1065     Br  0.65835594  0.90737250  0.68021171    -0.01500
Br1066     Br  0.66273859  0.90210509  0.60938909    -0.01600
Br1067     Br  0.60311485  0.71201606  0.68802967    -0.01600
Br1068     Br  0.58159524  0.70081967  0.61799496    -0.01600
C1069       C  0.02290377  0.29564652  0.95370943    -0.02700
C1070       C  0.04616566  0.34516943  0.95174370     0.07000
C1071       C  0.02023158  0.36823365  0.95614813    -0.02800
C1072       C  0.97193310  0.34214215  0.96284324    -0.02800
C1073       C  0.94824673  0.29269807  0.96278754     0.07100
C1074       C  0.97384452  0.26955418  0.95744940    -0.03000
Br1075     Br  0.94203898  0.20216201  0.45295931    -0.01500
Br1076     Br  0.05792866  0.26273113  0.95409434    -0.01600
Br1077     Br  0.93900076  0.37459496  0.97357187    -0.01600
Br1078     Br  0.04978133  0.43549620  0.95210680    -0.01600
C1079       C  0.35344135  0.37834066  0.91715877    -0.02700
C1080       C  0.30382041  0.35452282  0.91965448     0.07000
C1081       C  0.27832300  0.30504174  0.91721346    -0.02800
C1082       C  0.30199911  0.27976081  0.91334442    -0.02800
C1083       C  0.35177438  0.30347589  0.91122932     0.07100
C1084       C  0.37719030  0.35303618  0.91255043    -0.03000
Br1085     Br  0.44441892  0.38683097  0.90620858    -0.01500
Br1086     Br  0.38947819  0.44551254  0.92146552    -0.01600
Br1087     Br  0.26484974  0.21191798  0.91203109    -0.01600
Br1088     Br  0.21006528  0.27077360  0.91783291    -0.01600
C1089       C  0.35453309  0.57351701  0.99810739    -0.02700
C1090       C  0.34391744  0.56750091  0.96886215     0.07000
C1091       C  0.37397175  0.60171392  0.94882007    -0.02800
C1092       C  0.41514450  0.64159392  0.95793310    -0.02800
C1093       C  0.42686713  0.64691289  0.98714480     0.07100
C1094       C  0.39550973  0.61365299  0.50733676    -0.03000
Br1095     Br  0.40569367  0.62501596  0.54785083    -0.01500
Br1096     Br  0.31397447  0.52587477  0.52533513    -0.01600
Br1097     Br  0.45471799  0.68887583  0.93013552    -0.01600
Br1098     Br  0.35840517  0.59463771  0.90870582    -0.01600
C1099       C  0.02790895  0.30904903  0.71179273    -0.02700
C1100       C  0.05039468  0.35634373  0.70280839     0.07000
C1101       C  0.02391807  0.37888277  0.69958059    -0.02800
C1102       C  0.97506056  0.35430854  0.70535765    -0.02800
C1103       C  0.95201017  0.30644617  0.71413902     0.07100
C1104       C  0.97911034  0.28395660  0.71690514    -0.03000
Br1105     Br  0.95041974  0.21749030  0.72536857    -0.01500
Br1106     Br  0.06427368  0.27828682  0.71805993    -0.01600
Br1107     Br  0.94102927  0.38761252  0.70111758    -0.01600
Br1108     Br  0.05430674  0.44282844  0.68560641    -0.01600
C1109       C  0.29789298  0.27873958  0.66204102    -0.02700
C1110       C  0.34773069  0.30207874  0.66019406     0.07000
C1111       C  0.37364565  0.35163352  0.66043427    -0.02800
C1112       C  0.35053851  0.37744542  0.66458415    -0.02800
C1113       C  0.30118527  0.35394294  0.66809392     0.07100
C1114       C  0.27490710  0.30450702  0.66621592    -0.03000
Br1115     Br  0.20662389  0.27116331  0.66819390    -0.01500
Br1116     Br  0.25955238  0.21114907  0.65914543    -0.01600
Br1117     Br  0.38708209  0.44502239  0.66657834    -0.01600
Br1118     Br  0.44050326  0.38474013  0.65281360    -0.01600
C1119       C  0.15007640  0.37735395  0.79664150    -0.02700
C1120       C  0.18654446  0.37826919  0.78021562     0.07000
C1121       C  0.22265670  0.37444850  0.79381219    -0.02800
C1122       C  0.22334388  0.37186002  0.82385939    -0.02800
C1123       C  0.18917825  0.37533063  0.84031812     0.07100
C1124       C  0.15218639  0.37740056  0.82662659    -0.03000
Br1125     Br  0.10764900  0.38594266  0.84895930    -0.01500
Br1126     Br  0.09897404  0.37958418  0.77799345    -0.01600
Br1127     Br  0.27364563  0.36822525  0.84260614    -0.01600
Br1128     Br  0.27344599  0.37746514  0.77135876    -0.01600
C1129       C  0.14715973  0.37215251  0.57712912    -0.02700
C1130       C  0.18637721  0.37399522  0.59041874     0.07000
C1131       C  0.22066879  0.37109044  0.57377652    -0.02800
C1132       C  0.21842615  0.37155589  0.54379018    -0.02800
C1133       C  0.18086159  0.37288050  0.53042681     0.07100
C1134       C  0.14402160  0.37089519  0.54712601    -0.03000
Br1135     Br  0.09127611  0.37056569  0.52890816    -0.01500
Br1136     Br  0.10033419  0.37596815  0.60009701    -0.01600
Br1137     Br  0.26954747  0.37623024  0.52087694    -0.01600
Br1138     Br  0.27288427  0.37046989  0.59198443    -0.01600
C1139       C  0.42975777  0.63793417  0.71092256    -0.02700
C1140       C  0.43144455  0.64855614  0.74006597     0.07000
C1141       C  0.39336257  0.61950918  0.75823210    -0.02800
C1142       C  0.35445561  0.57887581  0.74751939    -0.02800
C1143       C  0.35255573  0.56805278  0.71823963     0.07100
C1144       C  0.39024486  0.59815160  0.69988579    -0.03000
Br1145     Br  0.38678368  0.58800866  0.65913419    -0.01500
Br1146     Br  0.48141564  0.67840449  0.68598928    -0.01600
Br1147     Br  0.30424297  0.53799481  0.77337900    -0.01600
Br1148     Br  0.39243884  0.63749570  0.79730530    -0.01600
C1149       C  0.34719814  0.97393026  0.87416928    -0.02700
C1150       C  0.29761658  0.94945217  0.87392981     0.07000
C1151       C  0.27322765  0.97358116  0.87991628    -0.02800
C1152       C  0.29823272  0.02207980  0.88514395    -0.02800
C1153       C  0.34815475  0.04680656  0.88577735     0.07100
C1154       C  0.37234872  0.02205662  0.88077940    -0.03000
Br1155     Br  0.43990750  0.05295076  0.88429620    -0.01500
Br1156     Br  0.38087960  0.94214698  0.86368947    -0.01600
Br1157     Br  0.26272220  0.05405805  0.88963446    -0.01600
Br1158     Br  0.20507442  0.94009596  0.88217067    -0.01600
C1159       C  0.02207236  0.64844858  0.83459505    -0.02700
C1160       C  0.04614820  0.69775763  0.83660901     0.07000
C1161       C  0.02075327  0.72174759  0.83388721    -0.02800
C1162       C  0.97176712  0.69661472  0.82978675    -0.02800
C1163       C  0.94772293  0.64722149  0.82678858     0.07100
C1164       C  0.97320264  0.62333832  0.82939986    -0.03000
Br1165     Br  0.94186051  0.55628898  0.82513500    -0.01500
Br1166     Br  0.05558214  0.61490729  0.84026417    -0.01600
Br1167     Br  0.93778419  0.73058346  0.83059245    -0.01600
Br1168     Br  0.05301712  0.78967472  0.83404708    -0.01600
C1169       C  0.19393961  0.62875683  0.90914415    -0.02700
C1170       C  0.21225030  0.64766098  0.88209429     0.07000
C1171       C  0.22669638  0.62371833  0.86349131    -0.02800
C1172       C  0.22353090  0.58122473  0.87219993    -0.02800
C1173       C  0.20790022  0.56345290  0.90011315     0.07100
C1174       C  0.19195897  0.58704661  0.91834127    -0.03000
Br1175     Br  0.16878398  0.56449776  0.95651277    -0.01500
Br1176     Br  0.17126462  0.66046724  0.93340587    -0.01600
Br1177     Br  0.23756981  0.54601743  0.84499239    -0.01600
Br1178     Br  0.25262539  0.64998329  0.82635828    -0.01600
C1179       C  0.42434018  0.79320145  0.83326877    -0.02700
C1180       C  0.43024617  0.78543294  0.80447402     0.07000
C1181       C  0.39583194  0.77924536  0.78426384    -0.02800
C1182       C  0.35729265  0.78399627  0.79239388    -0.02800
C1183       C  0.35039053  0.79035613  0.82133158     0.07100
C1184       C  0.38421028  0.79505006  0.84183160    -0.03000
Br1185     Br  0.37536631  0.80186179  0.88200126    -0.01500
Br1186     Br  0.47105077  0.80079615  0.86100865    -0.01600
Br1187     Br  0.31592463  0.78496949  0.76346818    -0.01600
Br1188     Br  0.39845458  0.75919270  0.74602170    -0.01600
C1189       C  0.27550764  0.97687675  0.62717295    -0.02700
C1190       C  0.29941787  0.95292319  0.61967712     0.07000
C1191       C  0.34883790  0.97791240  0.61703542    -0.02800
C1192       C  0.37449648  0.02632420  0.62286342    -0.02800
C1193       C  0.35063326  0.05057013  0.63029443     0.07100
C1194       C  0.30069176  0.02559977  0.63131931    -0.03000
Br1195     Br  0.26522001  0.05761313  0.63609430    -0.01500
Br1196     Br  0.20811114  0.94276188  0.63371643    -0.01600
Br1197     Br  0.44234737  0.05822269  0.62140445    -0.01600
Br1198     Br  0.38128252  0.94601754  0.60429677    -0.01600
C1199       C  0.97186159  0.69466930  0.58349245    -0.02700
C1200       C  0.94937928  0.64609736  0.57783788     0.07000
C1201       C  0.97503460  0.62244228  0.58068632    -0.02800
C1202       C  0.02294647  0.64735943  0.58834453    -0.02800
C1203       C  0.04617660  0.69646950  0.59189258     0.07100
C1204       C  0.02011925  0.71990322  0.58981335    -0.03000
Br1205     Br  0.05003784  0.78722747  0.59434307    -0.01500
Br1206     Br  0.93633397  0.72699227  0.58462195    -0.01600
Br1207     Br  0.05580021  0.61355250  0.59582075    -0.01600
Br1208     Br  0.94534359  0.55617236  0.57307901    -0.01600
C1209       C  0.21566836  0.85012083  0.99655507    -0.02700
C1210       C  0.17872904  0.81134151  0.51073986     0.07000
C1211       C  0.14240018  0.77534384  0.99473064    -0.02800
C1212       C  0.14518468  0.77611020  0.96469226    -0.02800
C1213       C  0.18453535  0.81255484  0.95059704     0.07100
C1214       C  0.21916462  0.85036652  0.96654676    -0.03000
Br1215     Br  0.27380524  0.90037040  0.94779439    -0.01500
Br1216     Br  0.26281242  0.90127604  0.51865646    -0.01600
Br1217     Br  0.09727926  0.72536286  0.94278522    -0.01600
Br1218     Br  0.09053152  0.72315822  0.51409386    -0.01600
C1219       C  0.14713186  0.79286347  0.71446839    -0.02700
C1220       C  0.19041287  0.82189009  0.70059594     0.07000
C1221       C  0.23002444  0.85327859  0.71661036    -0.02800
C1222       C  0.22710768  0.85370315  0.74648943    -0.02800
C1223       C  0.18493045  0.82213480  0.76058909     0.07100
C1224       C  0.14441008  0.79287497  0.74452487    -0.03000
Br1225     Br  0.08709200  0.74810487  0.76371992    -0.01500
Br1226     Br  0.09360865  0.74869139  0.69257172    -0.01600
Br1227     Br  0.28244330  0.89379312  0.76853468    -0.01600
Br1228     Br  0.28991809  0.89233090  0.69793615    -0.01600
C1229       C  0.22421598  0.60440618  0.67352040    -0.02700
C1230       C  0.22135133  0.57296578  0.65219226     0.07000
C1231       C  0.21886399  0.58303594  0.62325767    -0.02800
C1232       C  0.21705308  0.62340203  0.61572119    -0.02800
C1233       C  0.21846225  0.65413343  0.63715289     0.07100
C1234       C  0.22282337  0.64496251  0.66600712    -0.03000
Br1235     Br  0.22537707  0.68700053  0.69540452    -0.01500
Br1236     Br  0.23233356  0.59339360  0.71312173    -0.01600
Br1237     Br  0.21463089  0.63720595  0.57576078    -0.01600
Br1238     Br  0.21727308  0.54132157  0.59397206    -0.01600
C1239       C  0.39308768  0.77878183  0.53243455    -0.02700
C1240       C  0.42548585  0.77830846  0.55214457     0.07000
C1241       C  0.41810249  0.77982016  0.58164209    -0.02800
C1242       C  0.37969987  0.78373523  0.59139532    -0.02800
C1243       C  0.34770020  0.78482970  0.57167669     0.07100
C1244       C  0.35432399  0.78203976  0.54222386    -0.03000
Br1245     Br  0.31077253  0.78390036  0.51524427    -0.01500
Br1246     Br  0.39947753  0.77168346  0.49201784    -0.01600
Br1247     Br  0.37029923  0.78557248  0.63199414    -0.01600
Br1248     Br  0.46068255  0.77667517  0.60880126    -0.01600
loop_ 
_geom_bond_atom_site_label_1 
_geom_bond_atom_site_label_2 
_geom_bond_distance 
_geom_bond_site_symmetry_2 
_ccdc_geom_bond_type 
Fe1          O17   2.036       .  S
Fe1           O7   2.086       .  S
Fe1          O14   2.092       .  S
Fe1           O6   2.034       .  S
Fe1          O12   1.934       .  S
Fe2           O5   2.037       .  S
Fe2           O9   2.092       .  S
Fe2          O13   2.043       .  S
Fe2          O18   2.087       .  S
Fe2          O12   1.939       .  S
Fe3          O21   2.104       .  S
Fe3           O8   2.051       .  S
Fe3          O15   2.051       .  S
Fe3           O4   2.119       .  S
Fe3          O12   1.936       .  S
O4           C11   1.280       .  A
O5           C19   1.266       .  A
O6           C11   1.267       .  A
O7           C10   1.271       .  A
O8           C20   1.268       .  A
O9           C22   1.274       .  A
C10          O15   1.265       .  A
C10         C579   1.484       .  S
C11         C586   1.475       .  S
O13          C16   1.266       .  A
O14          C16   1.274       .  A
C16         C619   1.474       .  S
O17          C22   1.264       .  A
O18          C20   1.274       .  A
C19          O21   1.276       .  A
C19         C596   1.472       .  S
C20         C566   1.479       .  S
C22         C609   1.469       .  S
Fe23         O39   2.036       .  S
Fe23         O29   2.103       .  S
Fe23         O36   2.094       .  S
Fe23         O28   2.025       .  S
Fe23         O34   1.939       .  S
Fe24         O27   2.043       .  S
Fe24         O31   2.110       .  S
Fe24         O35   2.039       .  S
Fe24         O40   2.091       .  S
Fe24         O34   1.933       .  S
Fe25         O43   2.114       .  S
Fe25         O30   2.048       .  S
Fe25         O37   2.047       .  S
Fe25         O26   2.114       .  S
Fe25         O34   1.938       .  S
O26          C33   1.277       .  A
O27          C41   1.268       .  A
O28          C33   1.263       .  A
O29          C32   1.277       .  A
O30          C42   1.267       .  A
O31          C44   1.279       .  A
C32          O37   1.268       .  A
C32         C536   1.484       .  S
C33         C599   1.470       .  S
O35          C38   1.262       .  A
O36          C38   1.274       .  A
C38         C559   1.478       .  S
O39          C44   1.266       .  A
O40          C42   1.275       .  A
C41          O43   1.278       .  A
C41         C589   1.478       .  S
C42         C526   1.481       .  S
C44         C546   1.474       .  S
Fe45         O61   2.049       .  S
Fe45         O51   2.089       .  S
Fe45         O58   2.095       .  S
Fe45         O50   2.040       .  S
Fe45         O56   1.944       .  S
Fe46         O49   2.040       .  S
Fe46         O53   2.087       .  S
Fe46         O57   2.036       .  S
Fe46         O62   2.090       .  S
Fe46         O56   1.933       .  S
Fe47         O65   2.105       .  S
Fe47         O52   2.050       .  S
Fe47         O59   2.044       .  S
Fe47         O48   2.111       .  S
Fe47         O56   1.933       .  S
O48          C55   1.278       .  A
O49          C63   1.266       .  A
O50          C55   1.268       .  A
O51          C54   1.272       .  A
O52          C64   1.267       .  A
O53          C66   1.273       .  A
C54          O59   1.264       .  A
C54         C489   1.481       .  S
C55         C506   1.472       .  S
O57          C60   1.264       .  A
O58          C60   1.274       .  A
C60         C606   1.468       .  S
O61          C66   1.268       .  A
O62          C64   1.273       .  A
C63          O65   1.276       .  A
C63         C496   1.473       .  S
C64         C476   1.480       .  S
C66         C519   1.479       .  S
Fe67         O83   2.046       .  S
Fe67         O73   2.080       .  S
Fe67         O80   2.098       .  S
Fe67         O72   2.032       .  S
Fe67         O78   1.936       .  S
Fe68         O71   2.028       .  S
Fe68         O75   2.111       .  S
Fe68         O79   2.033       .  S
Fe68         O84   2.110       .  S
Fe68         O78   1.937       .  S
Fe69         O87   2.119       .  S
Fe69         O74   2.054       .  S
Fe69         O81   2.051       .  S
Fe69         O70   2.115       .  S
Fe69         O78   1.928       .  S
O70         C701   1.280       .  A
O71          C85   1.265       .  A
O72         C701   1.267       .  A
O73          C76   1.270       .  A
O74          C86   1.266       .  A
O75          C88   1.278       .  A
C76          O81   1.266       .  A
C76         C446   1.482       .  S
C77         O694   1.280   1_554  A
C77         O696   1.267   1_554  A
C77         C509   1.472       .  S
O79          C82   1.264       .  A
O80          C82   1.276       .  A
C82         C466   1.465       .  S
O83          C88   1.264       .  A
O84          C86   1.276       .  A
C85          O87   1.280       .  A
C85         C499   1.472       .  S
C86         C456   1.496       .  S
C88         C549   1.490       .  S
Fe89         O95   2.058       .  S
Fe89        O102   2.064       .  S
Fe89         O94   2.040       .  S
Fe89        O729   2.037       .  S
Fe89        O724   1.953       .  S
Fe90         O93   2.048       .  S
Fe90         O97   2.103       .  S
Fe90        O101   2.048       .  S
Fe90        O106   2.093       .  S
Fe90        O100   1.952       .  S
Fe91        O109   2.111       .  S
Fe91         O96   2.065       .  S
Fe91        O103   2.081       .  S
Fe91        O716   2.107   1_554  S
Fe91        O100   1.952       .  S
O92        Fe715   2.107       .  S
O92          C99   1.277       .  A
O93         C107   1.269       .  A
O94          C99   1.271       .  A
O95         C722   1.265       .  A
O96         C108   1.271       .  A
O97         C110   1.279       .  A
C98         O103   1.273       .  A
C98         O719   1.265   1_554  A
C98         C416   1.486       .  S
C99         C426   1.479       .  S
O100       Fe713   1.953   1_554  S
O101        C728   1.264   1_554  A
O102        C104   1.265       .  A
C104        O725   1.264       .  A
C104        C469   1.471       .  S
O105       Fe713   2.037   1_554  S
O105        C110   1.267       .  A
O106        C108   1.274       .  A
C107        O109   1.279       .  A
C107        C436   1.487       .  S
C108        C406   1.495       .  S
C110        C616   1.477       .  S
Fe111       O127   2.044       .  S
Fe111       O117   2.097       .  S
Fe111       O124   2.085       .  S
Fe111       O116   2.032       .  S
Fe111       O122   1.934       .  S
Fe112       O115   2.040       .  S
Fe112       O119   2.090       .  S
Fe112       O123   2.046       .  S
Fe112       O128   2.095       .  S
Fe112       O122   1.939       .  S
Fe113       O131   2.120       .  S
Fe113       O118   2.038       .  S
Fe113       O125   2.045       .  S
Fe113       O114   2.114       .  S
Fe113       O122   1.943       .  S
O114        C121   1.276       .  A
O115        C129   1.266       .  A
O116        C121   1.263       .  A
O117        C120   1.275       .  A
O118        C130   1.265       .  A
O119        C132   1.274       .  A
C120        O125   1.268       .  A
C120        C396   1.482       .  S
C121        C439   1.474       .  S
O123        C126   1.267       .  A
O124        C126   1.273       .  A
C126        C516   1.471       .  S
O127        C132   1.268       .  A
O128        C130   1.273       .  A
C129        O131   1.278       .  A
C129        C429   1.483       .  S
C130        C386   1.478       .  S
C132        C556   1.472       .  S
Fe133       O149   2.057       .  S
Fe133       O139   2.090       .  S
Fe133       O146   2.071       .  S
Fe133       O138   2.039       .  S
Fe133       O144   1.946       .  S
Fe134       O137   2.035       .  S
Fe134       O141   2.083       .  S
Fe134       O145   2.058       .  S
Fe134       O150   2.092       .  S
Fe134       O144   1.945       .  S
Fe135       O153   2.110       .  S
Fe135       O140   2.060       .  S
Fe135       O147   2.059       .  S
Fe135       O136   2.118       .  S
Fe135       O144   1.944       .  S
O136        C143   1.278       .  A
O137        C151   1.265       .  A
O138        C143   1.265       .  A
O139        C142   1.272       .  A
O140        C152   1.268       .  A
O141        C154   1.276       .  A
C142        O147   1.267       .  A
C142        C479   1.497       .  S
C143        C356   1.484       .  S
O145        C148   1.270       .  A
O146        C148   1.270       .  A
C148        C379   1.488       .  S
O149        C154   1.267       .  A
O150        C152   1.276       .  A
C151        O153   1.275       .  A
C151        C346   1.477       .  S
C152        C399   1.496       .  S
C154        C369   1.494       .  S
Fe155       O171   2.048       .  S
Fe155       O161   2.080       .  S
Fe155       O168   2.096       .  S
Fe155       O160   2.038       .  S
Fe155       O166   1.941       .  S
Fe156       O159   2.049       .  S
Fe156       O163   2.083       .  S
Fe156       O172   2.078       .  S
Fe156       O791   2.049   1_554  S
Fe156       O790   1.946   1_554  S
Fe157       O162   2.063       .  S
Fe157       O169   2.047       .  S
Fe157       O158   2.121       .  S
Fe157       O799   2.114       .  S
Fe157       O166   1.959       .  S
O158        C165   1.279       .  A
O159        C173   1.270       .  A
O160        C165   1.266       .  A
O161        C164   1.272       .  A
O162        C174   1.270       .  A
O163        C176   1.271       .  A
C164        O169   1.266       .  A
C164        C449   1.479       .  S
C165        C349   1.487       .  S
O166       Fe780   1.946       .  S
O167       Fe780   2.049       .  S
O167        C170   1.268       .  A
O168        C170   1.275       .  A
C170        C339   1.475       .  S
O171        C800   1.264       .  A
O172        C798   1.273   1_554  A
C173        O175   1.277       .  A
C173        C359   1.486       .  S
C174        O796   1.273       .  A
C174        C419   1.485       .  S
O175       Fe781   2.114   1_554  S
C176        O795   1.264   1_554  A
C176        C326   1.478       .  S
Fe177       O193   2.039       .  S
Fe177       O183   2.111       .  S
Fe177       O190   2.108       .  S
Fe177       O182   2.036   1_554  S
Fe177       O188   1.943       .  S
Fe178       O181   2.034       .  S
Fe178       O185   2.101       .  S
Fe178       O189   2.036       .  S
Fe178       O194   2.088       .  S
Fe178       O188   1.937       .  S
Fe179       O197   2.110       .  S
Fe179       O184   2.057       .  S
Fe179       O191   2.057       .  S
Fe179       O180   2.118       .  S
Fe179       O188   1.939       .  S
O180        C811   1.278   1_554  A
O181        C195   1.267       .  A
O182        C811   1.265       .  A
O183        C186   1.276       .  A
O184        C196   1.269       .  A
O185        C198   1.276       .  A
C186        O191   1.268       .  A
C186        C409   1.504       .  S
C187        O804   1.278       .  A
C187        O806   1.265       .  A
C187        C296   1.478       .  S
O189        C192   1.264       .  A
O190        C192   1.277       .  A
C192        C329   1.480       .  S
O193        C198   1.266       .  A
O194        C196   1.273       .  A
C195        O197   1.277       .  A
C195        C306   1.471       .  S
C196        C576   1.484       .  S
C198        C316   1.472       .  S
Fe199       O215   2.051       .  S
Fe199       O205   2.103       .  S
Fe199       O212   2.094       .  S
Fe199       O204   2.043       .  S
Fe199       O210   1.938       .  S
Fe200       O203   2.033       .  S
Fe200       O207   2.095       .  S
Fe200       O211   2.046       .  S
Fe200       O216   2.087       .  S
Fe200       O210   1.939       .  S
Fe201       O219   2.109       .  S
Fe201       O206   2.046       .  S
Fe201       O213   2.047       .  S
Fe201       O202   2.109       .  S
Fe201       O210   1.936       .  S
O202        C209   1.277       .  A
O203        C217   1.266       .  A
O204        C209   1.269       .  A
O205        C208   1.275       .  A
O206        C218   1.265       .  A
O207        C220   1.275       .  A
C208        O213   1.265       .  A
C208        C539   1.489       .  S
C209        C299   1.475       .  S
O211        C214   1.263       .  A
O212        C214   1.273       .  A
C214        C286   1.490       .  S
O215        C220   1.272       .  A
O216        C218   1.271       .  A
C217        O219   1.278       .  A
C217        C309   1.471       .  S
C218        C389   1.481       .  S
C220        C366   1.488       .  S
Fe221       O237   2.038       .  S
Fe221       O227   2.099       .  S
Fe221       O234   2.096       .  S
Fe221       O226   2.027       .  S
Fe221       O232   1.940       .  S
Fe222       O225   2.036       .  S
Fe222       O229   2.106       .  S
Fe222       O233   2.053       .  S
Fe222       O238   2.098       .  S
Fe222       O232   1.933       .  S
Fe223       O241   2.114       .  S
Fe223       O228   2.045       .  S
Fe223       O235   2.047       .  S
Fe223       O224   2.115       .  S
Fe223       O232   1.934       .  S
O224        C231   1.279       .  A
O225        C239   1.265       .  A
O226        C231   1.266       .  A
O227        C230   1.272       .  A
O228        C240   1.264       .  A
O229        C242   1.280       .  A
C230        O235   1.264       .  A
C230        C569   1.490       .  S
C231        C279   1.472       .  S
O233        C236   1.265       .  A
O234        C236   1.273       .  A
C236        C319   1.489       .  S
O237        C242   1.268       .  A
O238        C240   1.276       .  A
C239        O241   1.278       .  A
C239        C266   1.477       .  S
C240        C486   1.488       .  S
C242        C376   1.490       .  S
Fe243       O259   2.051       .  S
Fe243       O249   2.096       .  S
Fe243       O256   2.112       .  S
Fe243       O248   2.040       .  S
Fe243       O254   1.936       .  S
Fe244       O247   2.023       .  S
Fe244       O251   2.102       .  S
Fe244       O255   2.029       .  S
Fe244       O260   2.107       .  S
Fe244       O254   1.932       .  S
Fe245       O263   2.121       .  S
Fe245       O250   2.055       .  S
Fe245       O257   2.056       .  S
Fe245       O246   2.114       .  S
Fe245       O254   1.931       .  S
O246        C253   1.280       .  A
O247        C261   1.263       .  A
O248        C253   1.269       .  A
O249        C252   1.274       .  A
O250        C262   1.266       .  A
O251        C264   1.276       .  A
C252        O257   1.267       .  A
C252        C529   1.491       .  S
C253        C269   1.475       .  S
O255        C258   1.262       .  A
O256        C258   1.278       .  A
C258        C289   1.469       .  S
O259        C264   1.266       .  A
O260        C262   1.276       .  A
C261        O263   1.280       .  A
C261        C276   1.475       .  S
C262        C459   1.497       .  S
C264        C336   1.493       .  S
C265        C266   1.412       .  A
C265        C270   1.408       .  A
C265       Br272   1.929       .  S
C266        C267   1.408       .  A
C267        C268   1.411       .  A
C267       Br274   1.929       .  S
C268        C269   1.411       .  A
C268       Br273   1.929       .  S
C269        C270   1.406       .  A
C270       Br271   1.930       .  S
C275        C280   1.403       .  A
C275        C900   1.414   1_554  A
C275       Br906   1.933   1_554  S
C276        C899   1.414       .  A
C276        C901   1.408       .  A
C277        C278   1.411       .  A
C277        C900   1.408   1_554  A
C277       Br908   1.928   1_554  S
C278        C279   1.412       .  A
C278       Br283   1.928       .  S
C279        C280   1.408       .  A
C280       Br281   1.936       .  S
Br282       C899   1.933       .  S
Br284       C901   1.928       .  S
C285        C286   1.426       .  A
C285        C290   1.409       .  A
C285       Br292   1.935       .  S
C286        C287   1.417       .  A
C287        C288   1.404       .  A
C287       Br294   1.937       .  S
C288        C289   1.408       .  A
C288       Br293   1.929       .  S
C289        C290   1.401       .  A
C290       Br291   1.932       .  S
C295        C296   1.413       .  A
C295        C300   1.405       .  A
C295       Br302   1.928       .  S
C296        C297   1.408       .  A
C297        C298   1.412       .  A
C297       Br304   1.927       .  S
C298        C299   1.412       .  A
C298       Br303   1.926       .  S
C299        C300   1.405       .  A
C300       Br301   1.933       .  S
C305        C306   1.403       .  A
C305        C310   1.404       .  A
C305       Br312   1.929       .  S
C306        C307   1.413       .  A
C307        C308   1.411       .  A
C307       Br314   1.929       .  S
C308        C309   1.408       .  A
C308       Br313   1.932       .  S
C309        C310   1.411       .  A
C310       Br311   1.928       .  S
C315        C316   1.410       .  A
C315        C320   1.408       .  A
C315       Br322   1.934       .  S
C316        C317   1.403       .  A
C317        C318   1.408       .  A
C317       Br324   1.932       .  S
C318        C319   1.422       .  A
C318       Br323   1.933       .  S
C319        C320   1.416       .  A
C320       Br321   1.934       .  S
C325        C326   1.417   1_556  A
C325        C330   1.408       .  A
C325       Br332   1.933       .  S
C326        C327   1.407       .  A
C327        C328   1.407       .  A
C327       Br334   1.933       .  S
C328        C329   1.417       .  A
C328       Br333   1.934       .  S
C329        C330   1.407   1_554  A
C330       Br331   1.931       .  S
C335        C336   1.417       .  A
C335        C340   1.409       .  A
C335       Br342   1.934       .  S
C336        C337   1.423       .  A
C337        C338   1.409       .  A
C337       Br344   1.933       .  S
C338        C339   1.403       .  A
C338       Br343   1.933       .  S
C339        C340   1.409       .  A
C340       Br965   1.932       .  S
Br341       C964   1.932   1_554  S
C345        C346   1.405       .  A
C345        C350   1.404       .  A
C345       Br352   1.935       .  S
C346        C347   1.413       .  A
C347        C348   1.415       .  A
C347       Br354   1.927       .  S
C348        C349   1.409       .  A
C348       Br353   1.922       .  S
C349        C350   1.416       .  A
C350       Br351   1.930       .  S
C355        C356   1.411       .  A
C355        C360   1.416       .  A
C355       Br362   1.926       .  S
C356        C357   1.414       .  A
C357        C358   1.404       .  A
C357       Br364   1.930       .  S
C358        C359   1.405       .  A
C358       Br363   1.931       .  S
C359        C360   1.411       .  A
C360       Br361   1.922       .  S
C365        C366   1.416       .  A
C365        C370   1.410       .  A
C365       Br372   1.932       .  S
C366        C367   1.408       .  A
C367        C368   1.407       .  A
C367       Br374   1.931       .  S
C368        C369   1.417       .  A
C368       Br373   1.927       .  S
C369        C370   1.419       .  A
C370       Br371   1.940       .  S
C375        C376   1.415       .  A
C375        C380   1.408       .  A
C375       Br382   1.933       .  S
C376        C377   1.415       .  A
C377        C378   1.407       .  A
C377       Br384   1.928       .  S
C378        C379   1.418       .  A
C378       Br383   1.942       .  S
C379        C380   1.411       .  A
C380       Br381   1.930       .  S
C385        C386   1.411       .  A
C385        C390   1.412       .  A
C385       Br392   1.931       .  S
C386        C387   1.412       .  A
C387        C388   1.400       .  A
C387       Br394   1.938       .  S
C388        C389   1.413       .  A
C388       Br393   1.937       .  S
C389        C390   1.415       .  A
C390       Br391   1.928       .  S
C395        C396   1.408       .  A
C395        C400   1.411   1_565  A
C395       Br402   1.934       .  S
C396        C397   1.412       .  A
C397        C398   1.407   1_565  A
C397       Br404   1.940       .  S
C398        C399   1.422       .  A
C398       Br403   1.939       .  S
C399        C400   1.420       .  A
C400       Br401   1.930       .  S
C405        C406   1.412       .  A
C405        C410   1.408       .  A
C405       Br412   1.938       .  S
C406        C407   1.414       .  A
C407        C408   1.419       .  A
C407       Br414   1.932       .  S
C408        C409   1.421       .  A
C408       Br413   1.932       .  S
C409        C410   1.421       .  A
C410       Br411   1.938       .  S
C415        C416   1.406       .  A
C415        C420   1.406   1_565  A
C415       Br422   1.922       .  S
C416       C1041   1.416   1_554  A
C417        C418   1.410   1_565  A
C417       C1040   1.416       .  A
C417       Br424   1.934       .  S
C418        C419   1.412       .  A
C418       Br423   1.930       .  S
C419       C1044   1.414       .  A
C420       C1043   1.414   1_554  A
C420       Br421   1.931       .  S
C425        C426   1.412       .  A
C425        C430   1.416       .  A
C425       Br432   1.926       .  S
C426        C427   1.403       .  A
C427        C428   1.400       .  A
C427       Br434   1.934       .  S
C428        C429   1.415       .  A
C428       Br433   1.928       .  S
C429        C430   1.412       .  A
C430       Br431   1.926       .  S
C435        C436   1.409       .  A
C435        C440   1.410       .  A
C435       Br442   1.916       .  S
C436        C437   1.417       .  A
C437        C438   1.407       .  A
C437       Br444   1.930       .  S
C438        C439   1.404       .  A
C438       Br443   1.932       .  S
C439        C440   1.409       .  A
C440       Br441   1.926       .  S
C445        C446   1.416       .  A
C445        C450   1.405   1_455  A
C445       Br452   1.938       .  S
C446        C447   1.414       .  A
C447        C448   1.407   1_455  A
C447       Br454   1.931       .  S
C448        C449   1.411       .  A
C448       Br453   1.933       .  S
C449        C450   1.414       .  A
C450      Br1075   1.937       .  S
Br451      C1074   1.937       .  S
C455        C456   1.414       .  A
C455        C460   1.417       .  A
C455       Br462   1.930       .  S
C456        C457   1.417       .  A
C457        C458   1.409       .  A
C457       Br464   1.940       .  S
C458        C459   1.418       .  A
C458       Br463   1.939       .  S
C459        C460   1.416       .  A
C460       Br461   1.931       .  S
C465        C466   1.405       .  A
C465       C1094   1.405       .  A
C465      Br1096   1.932       .  S
C466        C467   1.411       .  A
C467        C468   1.402       .  A
C467       Br474   1.933       .  S
C468        C469   1.410       .  A
C468       Br473   1.935       .  S
C469       C1094   1.416       .  A
C470       C1089   1.405   1_554  A
C470       C1093   1.416   1_554  A
C470       Br471   1.934       .  S
Br472      C1089   1.932   1_554  S
C475        C476   1.410       .  A
C475        C480   1.406   1_455  A
C475       Br482   1.938       .  S
C476        C477   1.407       .  A
C477        C478   1.413   1_455  A
C477       Br484   1.933       .  S
C478        C479   1.422       .  A
C478       Br483   1.930       .  S
C479        C480   1.422       .  A
C480       Br481   1.939       .  S
C485        C486   1.419       .  A
C485        C490   1.406       .  A
C485       Br492   1.939       .  S
C486        C487   1.414       .  A
C487        C488   1.410       .  A
C487       Br494   1.931       .  S
C488        C489   1.411       .  A
C488       Br493   1.932       .  S
C489        C490   1.414       .  A
C490       Br491   1.942       .  S
C495        C496   1.410       .  A
C495        C500   1.406       .  A
C495       Br502   1.928       .  S
C496        C497   1.408       .  A
C497        C498   1.410       .  A
C497       Br504   1.930       .  S
C498        C499   1.412       .  A
C498       Br503   1.929       .  S
C499        C500   1.407       .  A
C500       Br501   1.930       .  S
C505        C506   1.406       .  A
C505        C510   1.409       .  A
C505       Br512   1.931       .  S
C506        C507   1.411       .  A
C507        C508   1.407       .  A
C507       Br514   1.927       .  S
C508        C509   1.405       .  A
C508       Br513   1.930       .  S
C509        C510   1.413       .  A
C510       Br511   1.928       .  S
C515        C516   1.406       .  A
C515        C520   1.406       .  A
C515       Br522   1.928       .  S
C516        C517   1.409       .  A
C517        C518   1.405       .  A
C517       Br524   1.933       .  S
C518        C519   1.413       .  A
C518       Br523   1.934       .  S
C519        C520   1.416       .  A
C520       Br521   1.934       .  S
C525        C526   1.409       .  A
C525        C530   1.410   1_565  A
C525       Br532   1.932       .  S
C526        C527   1.413       .  A
C527        C528   1.407   1_565  A
C527       Br534   1.939       .  S
C528        C529   1.419       .  A
C528       Br533   1.938       .  S
C529        C530   1.416       .  A
C530       Br531   1.930       .  S
C535        C536   1.411       .  A
C535        C540   1.412   1_455  A
C535       Br542   1.930       .  S
C536        C537   1.414       .  A
C537        C538   1.407   1_455  A
C537       Br544   1.939       .  S
C538        C539   1.417       .  A
C538       Br543   1.939       .  S
C539        C540   1.413       .  A
C540       Br541   1.926       .  S
C545        C546   1.401       .  A
C545        C550   1.408       .  A
C545       Br552   1.933       .  S
C546        C547   1.411       .  A
C547        C548   1.409       .  A
C547       Br554   1.931       .  S
C548        C549   1.414       .  A
C548       Br553   1.934       .  S
C549        C550   1.423       .  A
C550       Br551   1.932       .  S
C555        C556   1.406       .  A
C555        C560   1.408       .  A
C555       Br562   1.932       .  S
C556        C557   1.411       .  A
C557        C558   1.404       .  A
C557       Br564   1.930       .  S
C558        C559   1.408       .  A
C558       Br563   1.933       .  S
C559        C560   1.419       .  A
C560       Br561   1.935       .  S
C565        C566   1.411       .  A
C565        C570   1.405   1_565  A
C565       Br572   1.937       .  S
C566        C567   1.409       .  A
C567        C568   1.411   1_565  A
C567       Br574   1.931       .  S
C568        C569   1.417       .  A
C568       Br573   1.930       .  S
C569        C570   1.420       .  A
C570       Br571   1.939       .  S
C575        C576   1.414       .  A
C575        C580   1.405   1_655  A
C575       Br582   1.937       .  S
C576        C577   1.413       .  A
C577        C578   1.411   1_655  A
C577       Br584   1.931       .  S
C578        C579   1.413       .  A
C578       Br583   1.932       .  S
C579        C580   1.415       .  A
C580       Br581   1.938       .  S
C585        C590   1.409       .  A
C585       C1210   1.405       .  A
C585      Br1216   1.931       .  S
C586       C1209   1.405   1_554  A
C586       C1211   1.411   1_554  A
C587        C588   1.409       .  A
C587       C1210   1.411       .  A
C587      Br1218   1.927       .  S
C588        C589   1.406       .  A
C588       Br593   1.929       .  S
C589        C590   1.414       .  A
C590       Br591   1.927       .  S
Br592      C1209   1.931   1_554  S
Br594      C1211   1.927   1_554  S
C595        C596   1.407       .  A
C595        C600   1.410       .  A
C595       Br602   1.930       .  S
C596        C597   1.411       .  A
C597        C598   1.403       .  A
C597       Br604   1.930       .  S
C598        C599   1.406       .  A
C598       Br603   1.933       .  S
C599        C600   1.413       .  A
C600       Br601   1.928       .  S
C605        C606   1.414       .  A
C605        C610   1.403       .  A
C605       Br612   1.932       .  S
C606        C607   1.405       .  A
C607        C608   1.405       .  A
C607       Br614   1.932       .  S
C608        C609   1.416       .  A
C608       Br613   1.934       .  S
C609        C610   1.406       .  A
C610       Br611   1.933       .  S
C615        C616   1.416       .  A
C615        C620   1.407       .  A
C615       Br622   1.933   1_554  S
C616        C617   1.408       .  A
C617        C618   1.407       .  A
C617       Br624   1.933       .  S
C618        C619   1.415       .  A
C618       Br623   1.932       .  S
C619        C620   1.407       .  A
C620       Br621   1.935       .  S
Fe625       O641   2.036       .  S
Fe625       O631   2.086       .  S
Fe625       O638   2.092       .  S
Fe625       O630   2.034       .  S
Fe625       O636   1.934       .  S
Fe626       O629   2.037       .  S
Fe626       O633   2.092       .  S
Fe626       O637   2.043       .  S
Fe626       O642   2.087       .  S
Fe626       O636   1.939       .  S
Fe627       O645   2.104       .  S
Fe627       O632   2.051       .  S
Fe627       O639   2.051       .  S
Fe627       O628   2.119       .  S
Fe627       O636   1.936       .  S
O628        C635   1.280       .  A
O629        C643   1.266       .  A
O630        C635   1.267       .  A
O631        C634   1.271       .  A
O632        C644   1.268       .  A
O633        C646   1.274       .  A
C634        O639   1.265       .  A
C634       C1203   1.484       .  S
C635       C1210   1.475       .  S
O637        C640   1.266       .  A
O638        C640   1.274       .  A
C640       C1243   1.474       .  S
O641        C646   1.264       .  A
O642        C644   1.274       .  A
C643        O645   1.276       .  A
C643       C1220   1.472       .  S
C644       C1190   1.479       .  S
C646       C1233   1.469       .  S
Fe647       O663   2.036       .  S
Fe647       O653   2.103       .  S
Fe647       O660   2.094       .  S
Fe647       O652   2.025       .  S
Fe647       O658   1.939       .  S
Fe648       O651   2.043       .  S
Fe648       O655   2.110       .  S
Fe648       O659   2.039       .  S
Fe648       O664   2.091       .  S
Fe648       O658   1.933       .  S
Fe649       O667   2.114       .  S
Fe649       O654   2.048       .  S
Fe649       O661   2.047       .  S
Fe649       O650   2.114       .  S
Fe649       O658   1.938       .  S
O650        C657   1.277       .  A
O651        C665   1.268       .  A
O652        C657   1.263       .  A
O653        C656   1.277       .  A
O654        C666   1.267       .  A
O655        C668   1.279       .  A
C656        O661   1.268       .  A
C656       C1160   1.484       .  S
C657       C1223   1.470       .  S
O659        C662   1.262       .  A
O660        C662   1.274       .  A
C662       C1183   1.478       .  S
O663        C668   1.266       .  A
O664        C666   1.275       .  A
C665        O667   1.278       .  A
C665       C1213   1.478       .  S
C666       C1150   1.481       .  S
C668       C1170   1.474       .  S
Fe669       O685   2.049       .  S
Fe669       O675   2.089       .  S
Fe669       O682   2.095       .  S
Fe669       O674   2.040       .  S
Fe669       O680   1.944       .  S
Fe670       O673   2.040       .  S
Fe670       O677   2.087       .  S
Fe670       O681   2.036       .  S
Fe670       O686   2.090       .  S
Fe670       O680   1.933       .  S
Fe671       O689   2.105       .  S
Fe671       O676   2.050       .  S
Fe671       O683   2.044       .  S
Fe671       O672   2.111       .  S
Fe671       O680   1.933       .  S
O672        C679   1.278       .  A
O673        C687   1.266       .  A
O674        C679   1.268       .  A
O675        C678   1.272       .  A
O676        C688   1.267       .  A
O677        C690   1.273       .  A
C678        O683   1.264       .  A
C678       C1113   1.481       .  S
C679       C1130   1.472       .  S
O681        C684   1.264       .  A
O682        C684   1.274       .  A
C684       C1230   1.468       .  S
O685        C690   1.268       .  A
O686        C688   1.273       .  A
C687        O689   1.276       .  A
C687       C1120   1.473       .  S
C688       C1100   1.480       .  S
C690       C1143   1.479       .  S
Fe691       O707   2.046       .  S
Fe691       O697   2.080       .  S
Fe691       O704   2.098       .  S
Fe691       O696   2.032       .  S
Fe691       O702   1.936       .  S
Fe692       O695   2.028       .  S
Fe692       O699   2.111       .  S
Fe692       O703   2.033       .  S
Fe692       O708   2.110       .  S
Fe692       O702   1.937       .  S
Fe693       O711   2.120       .  S
Fe693       O698   2.054       .  S
Fe693       O705   2.051       .  S
Fe693       O694   2.115       .  S
Fe693       O702   1.928       .  S
O695        C709   1.265       .  A
O697        C700   1.270       .  A
O698        C710   1.266       .  A
O699        C712   1.278       .  A
C700        O705   1.266       .  A
C700       C1070   1.482       .  S
C701       C1133   1.472       .  S
O703        C706   1.264       .  A
O704        C706   1.276       .  A
C706       C1090   1.465       .  S
O707        C712   1.264       .  A
O708        C710   1.276       .  A
C709        O711   1.280       .  A
C709       C1123   1.472       .  S
C710       C1080   1.496       .  S
C712       C1173   1.490       .  S
Fe713       O719   2.058       .  S
Fe713       O726   2.064       .  S
Fe713       O718   2.040       .  S
Fe714       O717   2.048       .  S
Fe714       O721   2.103       .  S
Fe714       O725   2.048       .  S
Fe714       O730   2.093       .  S
Fe714       O724   1.952       .  S
Fe715       O733   2.111       .  S
Fe715       O720   2.065       .  S
Fe715       O727   2.081       .  S
Fe715       O724   1.952       .  S
O716        C723   1.277       .  A
O717        C731   1.269       .  A
O718        C723   1.271       .  A
O720        C732   1.271       .  A
O721        C734   1.279       .  A
C722        O727   1.273       .  A
C722       C1040   1.486       .  S
C723       C1050   1.479       .  S
O726        C728   1.265       .  A
C728       C1093   1.471       .  S
O729        C734   1.267       .  A
O730        C732   1.274       .  A
C731        O733   1.279       .  A
C731       C1060   1.487       .  S
C732       C1030   1.495       .  S
C734       C1240   1.476       .  S
Fe735       O751   2.044       .  S
Fe735       O741   2.097       .  S
Fe735       O748   2.085       .  S
Fe735       O740   2.032       .  S
Fe735       O746   1.934       .  S
Fe736       O739   2.040       .  S
Fe736       O743   2.090       .  S
Fe736       O747   2.046       .  S
Fe736       O752   2.095       .  S
Fe736       O746   1.939       .  S
Fe737       O755   2.120       .  S
Fe737       O742   2.038       .  S
Fe737       O749   2.045       .  S
Fe737       O738   2.114       .  S
Fe737       O746   1.943       .  S
O738        C745   1.276       .  A
O739        C753   1.266       .  A
O740        C745   1.263       .  A
O741        C744   1.275       .  A
O742        C754   1.265       .  A
O743        C756   1.274       .  A
C744        O749   1.268       .  A
C744       C1020   1.482       .  S
C745       C1063   1.474       .  S
O747        C750   1.267       .  A
O748        C750   1.273       .  A
C750       C1140   1.471       .  S
O751        C756   1.268       .  A
O752        C754   1.273       .  A
C753        O755   1.278       .  A
C753       C1053   1.483       .  S
C754       C1010   1.478       .  S
C756       C1180   1.472       .  S
Fe757       O773   2.057       .  S
Fe757       O763   2.090       .  S
Fe757       O770   2.071       .  S
Fe757       O762   2.039       .  S
Fe757       O768   1.946       .  S
Fe758       O761   2.035       .  S
Fe758       O765   2.083       .  S
Fe758       O769   2.058       .  S
Fe758       O774   2.092       .  S
Fe758       O768   1.945       .  S
Fe759       O777   2.110       .  S
Fe759       O764   2.060       .  S
Fe759       O771   2.059       .  S
Fe759       O760   2.118       .  S
Fe759       O768   1.944       .  S
O760        C767   1.278       .  A
O761        C775   1.265       .  A
O762        C767   1.265       .  A
O763        C766   1.272       .  A
O764        C776   1.268       .  A
O765        C778   1.276       .  A
C766        O771   1.267       .  A
C766       C1103   1.497       .  S
C767        C980   1.484       .  S
O769        C772   1.270       .  A
O770        C772   1.270       .  A
C772       C1003   1.488       .  S
O773        C778   1.267       .  A
O774        C776   1.275       .  A
C775        O777   1.275       .  A
C775        C970   1.477       .  S
C776       C1023   1.496       .  S
C778        C993   1.494       .  S
Fe779       O795   2.048       .  S
Fe779       O785   2.080       .  S
Fe779       O792   2.096       .  S
Fe779       O784   2.038       .  S
Fe779       O790   1.941       .  S
Fe780       O783   2.049       .  S
Fe780       O787   2.083       .  S
Fe780       O796   2.078       .  S
Fe781       O786   2.063       .  S
Fe781       O793   2.047       .  S
Fe781       O782   2.121       .  S
Fe781       O790   1.959       .  S
O782        C789   1.279       .  A
O783        C797   1.270       .  A
O784        C789   1.266       .  A
O785        C788   1.272       .  A
O786        C798   1.270       .  A
O787        C800   1.271       .  A
C788        O793   1.266       .  A
C788       C1073   1.479       .  S
C789        C973   1.487       .  S
O791        C794   1.268       .  A
O792        C794   1.275       .  A
C794        C963   1.475       .  S
C797        O799   1.277       .  A
C797        C983   1.486       .  S
C798       C1043   1.485       .  S
C800        C950   1.478       .  S
Fe801       O817   2.039       .  S
Fe801       O807   2.111       .  S
Fe801       O814   2.108       .  S
Fe801       O806   2.036       .  S
Fe801       O812   1.943       .  S
Fe802       O805   2.034       .  S
Fe802       O809   2.101       .  S
Fe802       O813   2.036       .  S
Fe802       O818   2.088       .  S
Fe802       O812   1.937       .  S
Fe803       O821   2.110       .  S
Fe803       O808   2.057       .  S
Fe803       O815   2.057       .  S
Fe803       O804   2.118       .  S
Fe803       O812   1.939       .  S
O805        C819   1.267       .  A
O807        C810   1.276       .  A
O808        C820   1.269       .  A
O809        C822   1.276       .  A
C810        O815   1.268       .  A
C810       C1033   1.504       .  S
C811        C920   1.478       .  S
O813        C816   1.264       .  A
O814        C816   1.277       .  A
C816        C953   1.480       .  S
O817        C822   1.266       .  A
O818        C820   1.273       .  A
C819        O821   1.277       .  A
C819        C930   1.471       .  S
C820       C1200   1.484       .  S
C822        C940   1.472       .  S
Fe823       O839   2.051       .  S
Fe823       O829   2.103       .  S
Fe823       O836   2.094       .  S
Fe823       O828   2.043       .  S
Fe823       O834   1.938       .  S
Fe824       O827   2.033       .  S
Fe824       O831   2.095       .  S
Fe824       O835   2.046       .  S
Fe824       O840   2.087       .  S
Fe824       O834   1.939       .  S
Fe825       O843   2.109       .  S
Fe825       O830   2.046       .  S
Fe825       O837   2.047       .  S
Fe825       O826   2.109       .  S
Fe825       O834   1.936       .  S
O826        C833   1.277       .  A
O827        C841   1.266       .  A
O828        C833   1.269       .  A
O829        C832   1.275       .  A
O830        C842   1.265       .  A
O831        C844   1.275       .  A
C832        O837   1.265       .  A
C832       C1163   1.489       .  S
C833        C923   1.475       .  S
O835        C838   1.263       .  A
O836        C838   1.273       .  A
C838        C910   1.490       .  S
O839        C844   1.272       .  A
O840        C842   1.271       .  A
C841        O843   1.278       .  A
C841        C933   1.471       .  S
C842       C1013   1.481       .  S
C844        C990   1.488       .  S
Fe845       O861   2.038       .  S
Fe845       O851   2.099       .  S
Fe845       O858   2.096       .  S
Fe845       O850   2.027       .  S
Fe845       O856   1.940       .  S
Fe846       O849   2.036       .  S
Fe846       O853   2.106       .  S
Fe846       O857   2.053       .  S
Fe846       O862   2.098       .  S
Fe846       O856   1.933       .  S
Fe847       O865   2.114       .  S
Fe847       O852   2.045       .  S
Fe847       O859   2.047       .  S
Fe847       O848   2.115       .  S
Fe847       O856   1.934       .  S
O848        C855   1.279       .  A
O849        C863   1.265       .  A
O850        C855   1.266       .  A
O851        C854   1.273       .  A
O852        C864   1.264       .  A
O853        C866   1.280       .  A
C854        O859   1.264       .  A
C854       C1193   1.490       .  S
C855        C903   1.472       .  S
O857        C860   1.264       .  A
O858        C860   1.273       .  A
C860        C943   1.489       .  S
O861        C866   1.268       .  A
O862        C864   1.276       .  A
C863        O865   1.278       .  A
C863        C890   1.477       .  S
C864       C1110   1.488       .  S
C866       C1000   1.490       .  S
Fe867       O883   2.051       .  S
Fe867       O873   2.096       .  S
Fe867       O880   2.112       .  S
Fe867       O872   2.040       .  S
Fe867       O878   1.936       .  S
Fe868       O871   2.023       .  S
Fe868       O875   2.102       .  S
Fe868       O879   2.029       .  S
Fe868       O884   2.107       .  S
Fe868       O878   1.932       .  S
Fe869       O887   2.121       .  S
Fe869       O874   2.055       .  S
Fe869       O881   2.056       .  S
Fe869       O870   2.114       .  S
Fe869       O878   1.931       .  S
O870        C877   1.280       .  A
O871        C885   1.263       .  A
O872        C877   1.269       .  A
O873        C876   1.274       .  A
O874        C886   1.266       .  A
O875        C888   1.276       .  A
C876        O881   1.267       .  A
C876       C1153   1.491       .  S
C877        C893   1.475       .  S
O879        C882   1.262       .  A
O880        C882   1.278       .  A
C882        C913   1.469       .  S
O883        C888   1.266       .  A
O884        C886   1.276       .  A
C885        O887   1.280       .  A
C885        C900   1.475       .  S
C886       C1083   1.497       .  S
C888        C960   1.494       .  S
C889        C890   1.412       .  A
C889        C894   1.408       .  A
C889       Br896   1.929       .  S
C890        C891   1.408       .  A
C891        C892   1.411       .  A
C891       Br898   1.929       .  S
C892        C893   1.411       .  A
C892       Br897   1.929       .  S
C893        C894   1.406       .  A
C894       Br895   1.930       .  S
C899        C904   1.403       .  A
C901        C902   1.411       .  A
C902        C903   1.412       .  A
C902       Br907   1.928       .  S
C903        C904   1.408       .  A
C904       Br905   1.936       .  S
C909        C910   1.426       .  A
C909        C914   1.409       .  A
C909       Br916   1.935       .  S
C910        C911   1.417       .  A
C911        C912   1.404       .  A
C911       Br918   1.937       .  S
C912        C913   1.408       .  A
C912       Br917   1.929       .  S
C913        C914   1.401       .  A
C914       Br915   1.932       .  S
C919        C920   1.413       .  A
C919        C924   1.405       .  A
C919       Br926   1.928       .  S
C920        C921   1.408       .  A
C921        C922   1.412       .  A
C921       Br928   1.927       .  S
C922        C923   1.412       .  A
C922       Br927   1.926       .  S
C923        C924   1.405       .  A
C924       Br925   1.933       .  S
C929        C930   1.403       .  A
C929        C934   1.404       .  A
C929       Br936   1.929       .  S
C930        C931   1.413       .  A
C931        C932   1.411       .  A
C931       Br938   1.929       .  S
C932        C933   1.408       .  A
C932       Br937   1.932       .  S
C933        C934   1.411       .  A
C934       Br935   1.928       .  S
C939        C940   1.410       .  A
C939        C944   1.408       .  A
C939       Br946   1.934       .  S
C940        C941   1.403       .  A
C941        C942   1.408       .  A
C941       Br948   1.932       .  S
C942        C943   1.422       .  A
C942       Br947   1.933       .  S
C943        C944   1.416       .  A
C944       Br945   1.934       .  S
C949        C950   1.417       .  A
C949        C954   1.408       .  A
C949       Br956   1.933       .  S
C950        C951   1.407       .  A
C951        C952   1.407       .  A
C951       Br958   1.933       .  S
C952        C953   1.417       .  A
C952       Br957   1.934       .  S
C953        C954   1.407       .  A
C954       Br955   1.931       .  S
C959        C960   1.417       .  A
C959        C964   1.409       .  A
C959       Br966   1.934       .  S
C960        C961   1.423       .  A
C961        C962   1.409       .  A
C961       Br968   1.933       .  S
C962        C963   1.403       .  A
C962       Br967   1.933       .  S
C963        C964   1.409       .  A
C969        C970   1.405       .  A
C969        C974   1.404       .  A
C969       Br976   1.935       .  S
C970        C971   1.413       .  A
C971        C972   1.415       .  A
C971       Br978   1.927       .  S
C972        C973   1.409       .  A
C972       Br977   1.922       .  S
C973        C974   1.416       .  A
C974       Br975   1.930       .  S
C979        C980   1.411       .  A
C979        C984   1.416       .  A
C979       Br986   1.926       .  S
C980        C981   1.414       .  A
C981        C982   1.404       .  A
C981       Br988   1.930       .  S
C982        C983   1.405       .  A
C982       Br987   1.931       .  S
C983        C984   1.411       .  A
C984       Br985   1.922       .  S
C989        C990   1.416       .  A
C989        C994   1.410       .  A
C989       Br996   1.932       .  S
C990        C991   1.408       .  A
C991        C992   1.407       .  A
C991       Br998   1.931       .  S
C992        C993   1.417       .  A
C992       Br997   1.927       .  S
C993        C994   1.419       .  A
C994       Br995   1.940       .  S
C999       C1000   1.415       .  A
C999       C1004   1.408       .  A
C999      Br1006   1.933       .  S
C1000      C1001   1.415       .  A
C1001      C1002   1.407       .  A
C1001     Br1008   1.928       .  S
C1002      C1003   1.418       .  A
C1002     Br1007   1.942       .  S
C1003      C1004   1.411       .  A
C1004     Br1005   1.930       .  S
C1009      C1010   1.411       .  A
C1009      C1014   1.412       .  A
C1009     Br1016   1.931       .  S
C1010      C1011   1.412       .  A
C1011      C1012   1.400       .  A
C1011     Br1018   1.938       .  S
C1012      C1013   1.413       .  A
C1012     Br1017   1.937       .  S
C1013      C1014   1.415       .  A
C1014     Br1015   1.928       .  S
C1019      C1020   1.408       .  A
C1019      C1024   1.411   1_565  A
C1019     Br1026   1.934       .  S
C1020      C1021   1.412       .  A
C1021      C1022   1.407   1_565  A
C1021     Br1028   1.940       .  S
C1022      C1023   1.422       .  A
C1022     Br1027   1.939       .  S
C1023      C1024   1.420       .  A
C1024     Br1025   1.930       .  S
C1029      C1030   1.412       .  A
C1029      C1034   1.408       .  A
C1029     Br1036   1.938       .  S
C1030      C1031   1.414       .  A
C1031      C1032   1.419       .  A
C1031     Br1038   1.932       .  S
C1032      C1033   1.421       .  A
C1032     Br1037   1.932       .  S
C1033      C1034   1.421       .  A
C1034     Br1035   1.938       .  S
C1039      C1040   1.406       .  A
C1039      C1044   1.406   1_565  A
C1039     Br1046   1.922       .  S
C1041      C1042   1.410   1_565  A
C1041     Br1048   1.934       .  S
C1042      C1043   1.412       .  A
C1042     Br1047   1.930       .  S
C1044     Br1045   1.931       .  S
C1049      C1050   1.412       .  A
C1049      C1054   1.416       .  A
C1049     Br1056   1.926       .  S
C1050      C1051   1.403       .  A
C1051      C1052   1.400       .  A
C1051     Br1058   1.934       .  S
C1052      C1053   1.415       .  A
C1052     Br1057   1.928       .  S
C1053      C1054   1.412       .  A
C1054     Br1055   1.926       .  S
C1059      C1060   1.409       .  A
C1059      C1064   1.410       .  A
C1059     Br1066   1.916       .  S
C1060      C1061   1.417       .  A
C1061      C1062   1.407       .  A
C1061     Br1068   1.930       .  S
C1062      C1063   1.404       .  A
C1062     Br1067   1.932       .  S
C1063      C1064   1.409       .  A
C1064     Br1065   1.926       .  S
C1069      C1070   1.416       .  A
C1069      C1074   1.405   1_455  A
C1069     Br1076   1.938       .  S
C1070      C1071   1.414       .  A
C1071      C1072   1.407   1_455  A
C1071     Br1078   1.931       .  S
C1072      C1073   1.411       .  A
C1072     Br1077   1.933       .  S
C1073      C1074   1.414       .  A
C1079      C1080   1.414       .  A
C1079      C1084   1.417       .  A
C1079     Br1086   1.930       .  S
C1080      C1081   1.417       .  A
C1081      C1082   1.409       .  A
C1081     Br1088   1.940       .  S
C1082      C1083   1.418       .  A
C1082     Br1087   1.939       .  S
C1083      C1084   1.416       .  A
C1084     Br1085   1.931       .  S
C1089      C1090   1.405       .  A
C1090      C1091   1.411       .  A
C1091      C1092   1.402       .  A
C1091     Br1098   1.933       .  S
C1092      C1093   1.410       .  A
C1092     Br1097   1.935       .  S
C1094     Br1095   1.934       .  S
C1099      C1100   1.410       .  A
C1099      C1104   1.406   1_455  A
C1099     Br1106   1.938       .  S
C1100      C1101   1.407       .  A
C1101      C1102   1.413   1_455  A
C1101     Br1108   1.933       .  S
C1102      C1103   1.422       .  A
C1102     Br1107   1.930       .  S
C1103      C1104   1.422       .  A
C1104     Br1105   1.939       .  S
C1109      C1110   1.419       .  A
C1109      C1114   1.406       .  A
C1109     Br1116   1.939       .  S
C1110      C1111   1.414       .  A
C1111      C1112   1.410       .  A
C1111     Br1118   1.931       .  S
C1112      C1113   1.411       .  A
C1112     Br1117   1.932       .  S
C1113      C1114   1.414       .  A
C1114     Br1115   1.942       .  S
C1119      C1120   1.410       .  A
C1119      C1124   1.406       .  A
C1119     Br1126   1.928       .  S
C1120      C1121   1.408       .  A
C1121      C1122   1.410       .  A
C1121     Br1128   1.930       .  S
C1122      C1123   1.412       .  A
C1122     Br1127   1.929       .  S
C1123      C1124   1.407       .  A
C1124     Br1125   1.930       .  S
C1129      C1130   1.406       .  A
C1129      C1134   1.409       .  A
C1129     Br1136   1.931       .  S
C1130      C1131   1.411       .  A
C1131      C1132   1.407       .  A
C1131     Br1138   1.927       .  S
C1132      C1133   1.405       .  A
C1132     Br1137   1.930       .  S
C1133      C1134   1.413       .  A
C1134     Br1135   1.928       .  S
C1139      C1140   1.406       .  A
C1139      C1144   1.406       .  A
C1139     Br1146   1.928       .  S
C1140      C1141   1.409       .  A
C1141      C1142   1.405       .  A
C1141     Br1148   1.933       .  S
C1142      C1143   1.413       .  A
C1142     Br1147   1.934       .  S
C1143      C1144   1.416       .  A
C1144     Br1145   1.934       .  S
C1149      C1150   1.409       .  A
C1149      C1154   1.410   1_565  A
C1149     Br1156   1.932       .  S
C1150      C1151   1.413       .  A
C1151      C1152   1.407   1_565  A
C1151     Br1158   1.939       .  S
C1152      C1153   1.419       .  A
C1152     Br1157   1.938       .  S
C1153      C1154   1.416       .  A
C1154     Br1155   1.930       .  S
C1159      C1160   1.411       .  A
C1159      C1164   1.412   1_455  A
C1159     Br1166   1.930       .  S
C1160      C1161   1.414       .  A
C1161      C1162   1.407   1_455  A
C1161     Br1168   1.939       .  S
C1162      C1163   1.417       .  A
C1162     Br1167   1.939       .  S
C1163      C1164   1.413       .  A
C1164     Br1165   1.926       .  S
C1169      C1170   1.401       .  A
C1169      C1174   1.408       .  A
C1169     Br1176   1.933       .  S
C1170      C1171   1.411       .  A
C1171      C1172   1.409       .  A
C1171     Br1178   1.931       .  S
C1172      C1173   1.414       .  A
C1172     Br1177   1.934       .  S
C1173      C1174   1.423       .  A
C1174     Br1175   1.932       .  S
C1179      C1180   1.406       .  A
C1179      C1184   1.408       .  A
C1179     Br1186   1.932       .  S
C1180      C1181   1.411       .  A
C1181      C1182   1.404       .  A
C1181     Br1188   1.930       .  S
C1182      C1183   1.408       .  A
C1182     Br1187   1.933       .  S
C1183      C1184   1.419       .  A
C1184     Br1185   1.935       .  S
C1189      C1190   1.411       .  A
C1189      C1194   1.405   1_565  A
C1189     Br1196   1.937       .  S
C1190      C1191   1.409       .  A
C1191      C1192   1.411   1_565  A
C1191     Br1198   1.931       .  S
C1192      C1193   1.417       .  A
C1192     Br1197   1.930       .  S
C1193      C1194   1.420       .  A
C1194     Br1195   1.939       .  S
C1199      C1200   1.414       .  A
C1199      C1204   1.405   1_655  A
C1199     Br1206   1.937       .  S
C1200      C1201   1.413       .  A
C1201      C1202   1.411   1_655  A
C1201     Br1208   1.931       .  S
C1202      C1203   1.413       .  A
C1202     Br1207   1.932       .  S
C1203      C1204   1.415       .  A
C1204     Br1205   1.938       .  S
C1209      C1214   1.409       .  A
C1211      C1212   1.409       .  A
C1212      C1213   1.406       .  A
C1212     Br1217   1.929       .  S
C1213      C1214   1.414       .  A
C1214     Br1215   1.927       .  S
C1219      C1220   1.407       .  A
C1219      C1224   1.410       .  A
C1219     Br1226   1.930       .  S
C1220      C1221   1.411       .  A
C1221      C1222   1.403       .  A
C1221     Br1228   1.930       .  S
C1222      C1223   1.406       .  A
C1222     Br1227   1.933       .  S
C1223      C1224   1.413       .  A
C1224     Br1225   1.928       .  S
C1229      C1230   1.414       .  A
C1229      C1234   1.403       .  A
C1229     Br1236   1.932       .  S
C1230      C1231   1.405       .  A
C1231      C1232   1.405       .  A
C1231     Br1238   1.932       .  S
C1232      C1233   1.416       .  A
C1232     Br1237   1.934       .  S
C1233      C1234   1.406       .  A
C1234     Br1235   1.933       .  S
C1239      C1240   1.416       .  A
C1239      C1244   1.407       .  A
C1239     Br1246   1.933       .  S
C1240      C1241   1.408       .  A
C1241      C1242   1.407       .  A
C1241     Br1248   1.933       .  S
C1242      C1243   1.415       .  A
C1242     Br1247   1.932       .  S
C1243      C1244   1.407       .  A
C1244     Br1245   1.935       .  S
