geometry optimzed in LAMMPS
_audit_creation_date              2020-12-01 
_audit_creation_method            'lammps2cif' 
_symmetry_space_group_name_H-M    'P1' 
_symmetry_Int_Tables_number       1 
_symmetry_cell_setting            triclinic 
loop_ 
_symmetry_equiv_pos_as_xyz 
  x,y,z 
_cell_length_a                    32.67527437 
_cell_length_b                    32.71357500173902 
_cell_length_c                    56.00139789693635 
_cell_angle_alpha                 89.68344404985501 
_cell_angle_beta                  90.18350572502463 
_cell_angle_gamma                 120.54940694075157 
loop_ 
_atom_site_label 
_atom_site_type_symbol 
_atom_site_fract_x 
_atom_site_fract_y 
_atom_site_fract_z 
_atom_site_charge 
N1          N  0.49602803  0.34209761  0.40506258    -0.26900
N2          N  0.51260528  0.33086761  0.42403420    -0.34800
C3          C  0.53084577  0.36749583  0.43937898     0.01400
C4          C  0.52498423  0.40327279  0.42982417     0.07500
C5          C  0.50322562  0.38612355  0.40796491    -0.05600
H6          H  0.55036828  0.36948262  0.45537494     0.08100
H7          H  0.49700366  0.40582546  0.39428966     0.09300
Cu8        Cu  0.51675702  0.26964605  0.42693128     0.44200
Cu9        Cu  0.47278899  0.30133128  0.37408253     0.42000
Cu10       Cu  0.47836477  0.19386011  0.37525263     0.43900
N11         N  0.51854316  0.20708610  0.42501402    -0.34300
N12         N  0.50307484  0.17869941  0.40628347    -0.28600
C13         C  0.51175639  0.14306877  0.40968413    -0.04700
C14         C  0.53352572  0.14913198  0.43162355     0.07600
C15         C  0.53789359  0.19041178  0.44074008     0.01400
H16         H  0.50590267  0.11671708  0.39642345     0.09000
H17         H  0.55622643  0.20843469  0.45690796     0.08100
N18         N  0.46315427  0.21987360  0.34468992    -0.35700
N19         N  0.46053465  0.25890070  0.34414984    -0.27900
C20         C  0.45321382  0.26746549  0.32142633    -0.03200
C21         C  0.45193781  0.23257502  0.30696099     0.05400
C22         C  0.45790771  0.20280580  0.32239395     0.03500
H23         H  0.45113273  0.29800964  0.31568940     0.08600
H24         H  0.45951938  0.17160350  0.31768805     0.07500
N25         N  0.73722344  0.57738860  0.40178488    -0.26900
N26         N  0.74922619  0.56281805  0.42127550    -0.34800
C27         C  0.71352635  0.54738170  0.43724460     0.01400
C28         C  0.67758304  0.55310705  0.42764192     0.07500
C29         C  0.69367788  0.57161352  0.40500343    -0.05600
H30         H  0.71223762  0.52996029  0.45391548     0.08100
H31         H  0.67353777  0.57685357  0.39118745     0.09300
Cu32       Cu  0.81089790  0.55851669  0.42450961     0.44200
Cu33       Cu  0.77702581  0.59743159  0.37015147     0.42000
Cu34       Cu  0.88094799  0.58495632  0.37091868     0.43900
N35         N  0.87384189  0.55628558  0.42282701    -0.34300
N36         N  0.89959143  0.56677017  0.40314313    -0.28600
C37         C  0.93595924  0.55928422  0.40696242    -0.04700
C38         C  0.93355192  0.54372050  0.43021439     0.07600
C39         C  0.89322590  0.54152336  0.43965145     0.01400
H40         H  0.96046270  0.56175983  0.39330521     0.09000
H41         H  0.87753570  0.52741870  0.45692074     0.08100
N42         N  0.85655804  0.60234802  0.34034345    -0.35700
N43         N  0.81958864  0.60856331  0.34009815    -0.27900
C44         C  0.81359127  0.61995159  0.31768561    -0.03200
C45         C  0.84832485  0.62075815  0.30313767     0.05400
C46         C  0.87456558  0.60893176  0.31811184     0.03500
H47         H  0.78518345  0.62576738  0.31220572     0.08600
H48         H  0.90450001  0.60527457  0.31319114     0.07500
N49         N  0.91269776  0.34009797  0.40428513    -0.26900
N50         N  0.88693034  0.32400665  0.42397805    -0.34800
C51         C  0.90388841  0.35882950  0.44032290     0.01400
C52         C  0.94244518  0.39859373  0.43061680     0.07500
C53         C  0.94678241  0.38564895  0.40769687    -0.05600
H54         H  0.88687830  0.35665678  0.45719994     0.08100
H55         H  0.97034220  0.40881832  0.39388276     0.09300
Cu56       Cu  0.82409219  0.25945014  0.42654184     0.44200
Cu57       Cu  0.89530010  0.30290163  0.37215453     0.42000
Cu58       Cu  0.77919552  0.19656038  0.37116145     0.43900
N59         N  0.75701967  0.20000872  0.42324427    -0.34300
N60         N  0.74016114  0.17740629  0.40282991    -0.28600
C61         C  0.69408136  0.14421923  0.40581679    -0.04700
C62         C  0.68157854  0.14562408  0.42926315     0.07600
C63         C  0.72218603  0.18179452  0.43972173     0.01400
H64         H  0.67059685  0.12267009  0.39161356     0.09000
H65         H  0.72526703  0.19600369  0.45746411     0.08100
N66         N  0.82360893  0.22274185  0.34139988    -0.35700
N67         N  0.86601851  0.26167744  0.34164557    -0.27900
C68         C  0.88406618  0.27039229  0.31934052    -0.03200
C69         C  0.85173458  0.23489886  0.30434516     0.05400
C70         C  0.81370677  0.20557221  0.31900360     0.03500
H71         H  0.91764657  0.30093291  0.31428280     0.08600
H72         H  0.78037456  0.17524030  0.31359366     0.07500
C73         C  0.96317638  0.44757829  0.43944508    -0.10500
C74         C  0.94028294  0.47236903  0.43307708    -0.04300
C75         C  0.95861344  0.51976973  0.43952301    -0.10500
C76         C  0.00149991  0.54341311  0.45281043     0.10500
C77         C  0.02489688  0.51844289  0.45964713    -0.02300
C78         C  0.00541408  0.47021148  0.45310612     0.10300
C79         C  0.02885366  0.44603326  0.46020436    -0.12300
C80         C  0.07095700  0.46887001  0.47335186    -0.12300
C81         C  0.09155433  0.51689936  0.47960286     0.10300
C82         C  0.06834315  0.54198187  0.47265031    -0.02300
C83         C  0.02195702  0.59136698  0.45918161    -0.12400
C84         C  0.06483177  0.61461404  0.47171268    -0.12400
C85         C  0.08869461  0.59066350  0.47849830     0.10500
C86         C  0.13268636  0.61419175  0.49073839    -0.10500
C87         C  0.15491047  0.58897934  0.49759888    -0.04300
C88         C  0.13487575  0.54072291  0.49249991    -0.10500
H89         H  0.01475804  0.40915751  0.45563669     0.07700
H90         H  0.08761058  0.44867147  0.47835635     0.07700
H91         H  0.00507234  0.61142936  0.45434455     0.07900
H92         H  0.07926938  0.65167718  0.47597126     0.07900
H93         H  0.90807533  0.45469167  0.42245426     0.04400
H94         H  0.18820024  0.60716461  0.50734410     0.04400
N95         N  0.59574168  0.89171507  0.52270913    -0.26900
N96         N  0.58253037  0.86535687  0.50322400    -0.34800
C97         C  0.56525594  0.88392584  0.48736665     0.01400
C98         C  0.56846361  0.92417698  0.49723745     0.07500
C99         C  0.58751531  0.92773301  0.51970707    -0.05600
H100        H  0.54849962  0.86750464  0.47063274     0.08100
H101        H  0.59119586  0.95221504  0.53360403     0.09300
Cu102      Cu  0.58263219  0.80180386  0.50052340     0.44200
Cu103      Cu  0.61427008  0.87229917  0.55440166     0.42000
Cu104      Cu  0.60694337  0.75877450  0.55570295     0.43900
N105        N  0.58404559  0.73886184  0.50315119    -0.34300
N106        N  0.59396861  0.72396883  0.52315584    -0.28600
C107        C  0.58672439  0.68011194  0.51973948    -0.04700
C108        C  0.57180248  0.66660643  0.49647899     0.07600
C109        C  0.56997004  0.70456293  0.48657025     0.01400
H110        H  0.58751138  0.65774684  0.53382430     0.09000
H111        H  0.55531413  0.70536246  0.46936466     0.08100
N112        N  0.61191321  0.79677287  0.58631286    -0.35700
N113        N  0.61572649  0.83895617  0.58567539    -0.27900
C114        C  0.61484237  0.85292537  0.60810278    -0.03200
C115        C  0.60926448  0.81744443  0.62370870     0.05400
C116        C  0.60827146  0.78267915  0.60923717     0.03500
H117        H  0.61672703  0.88594643  0.61259736     0.08600
H118        H  0.60317901  0.74872706  0.61490085     0.07500
N119        N  0.19557303  0.49372263  0.52779061    -0.26900
N120        N  0.21984481  0.50370544  0.50760773    -0.34800
C121        C  0.19947769  0.51826573  0.49126883     0.01400
C122        C  0.16019147  0.51680985  0.50151393     0.07500
C123        C  0.15925346  0.50165511  0.52475315    -0.05600
H124        H  0.21400646  0.53196176  0.47376190     0.08100
H125        H  0.13580281  0.49966442  0.53887911     0.09300
Cu126      Cu  0.28321558  0.50292816  0.50427911     0.44200
Cu127      Cu  0.21615187  0.47542983  0.55958133     0.42000
Cu128      Cu  0.32543250  0.47292547  0.55839005     0.43900
N129        N  0.34730366  0.50317382  0.50635568    -0.34300
N130        N  0.36234423  0.49185739  0.52589403    -0.28600
C131        C  0.40649970  0.49982128  0.52194929    -0.04700
C132        C  0.41989107  0.51647541  0.49881348     0.07600
C133        C  0.38168273  0.51879654  0.48961201     0.01400
H134        H  0.42873668  0.49722192  0.53551611     0.09000
H135        H  0.38038793  0.53395208  0.47263285     0.08100
N136        N  0.28399367  0.45878172  0.58919164    -0.35700
N137        N  0.24397225  0.45962292  0.58954987    -0.27900
C138        C  0.22612924  0.44979682  0.61188321    -0.03200
C139        C  0.25596817  0.44187999  0.62644114     0.05400
C140        C  0.29264352  0.44856086  0.61134351     0.03500
H141        H  0.19374415  0.44863773  0.61717102     0.08600
H142        H  0.32406590  0.44734072  0.61618854     0.07500
N143        N  0.35730831  0.89338514  0.52228619    -0.26900
N144        N  0.34442997  0.86631159  0.50303665    -0.34800
C145        C  0.38110549  0.88424737  0.48758433     0.01400
C146        C  0.41859272  0.92485814  0.49737957     0.07500
C147        C  0.40240172  0.92926033  0.51947050    -0.05600
H148        H  0.38155524  0.86729290  0.47114636     0.08100
H149        H  0.42309023  0.95464118  0.53320907     0.09300
Cu150      Cu  0.27992306  0.80263606  0.49984779     0.44200
Cu151      Cu  0.31611841  0.87637045  0.55319313     0.42000
Cu152      Cu  0.20126108  0.76942547  0.55077714     0.43900
N153        N  0.21510615  0.73904004  0.50224305    -0.34300
N154        N  0.18579014  0.72787386  0.52055679    -0.28600
C155        C  0.14972105  0.68293133  0.51807874    -0.04700
C156        C  0.15645335  0.66489134  0.49718514     0.07600
C157        C  0.19849434  0.70119535  0.48772278     0.01400
H158        H  0.12299305  0.66347724  0.53152955     0.09000
H159        H  0.21731907  0.69906627  0.47236466     0.08100
N160        N  0.23003426  0.80746099  0.58188730    -0.35700
N161        N  0.27213374  0.84662495  0.58291857    -0.27900
C162        C  0.28265268  0.85953287  0.60594779    -0.03200
C163        C  0.24581075  0.82625420  0.62016847     0.05400
C164        C  0.21279121  0.79424851  0.60416004     0.03500
H165        H  0.31532165  0.89002242  0.61186522     0.08600
H166        H  0.17982330  0.76223400  0.60845610     0.07500
C167        C  0.63266877  0.12340155  0.43870436    -0.10500
C168        C  0.60659713  0.14533039  0.43317946    -0.04300
C169        C  0.55892520  0.12503264  0.43978413    -0.10500
C170        C  0.53623692  0.08138828  0.45239483     0.10500
C171        C  0.56242529  0.05900900  0.45847678    -0.02300
C172        C  0.61095602  0.08026774  0.45176940     0.10300
C173        C  0.63625412  0.05759313  0.45807090    -0.12300
C174        C  0.61423544  0.01460918  0.47054060    -0.12300
C175        C  0.56601407  0.99250344  0.47698183     0.10300
C176        C  0.53982613  0.01490751  0.47094569    -0.02300
C177        C  0.48810767  0.05945041  0.45897905    -0.12400
C178        C  0.46592234  0.01618188  0.47120303    -0.12400
C179        C  0.49107169  0.99325841  0.47731765     0.10500
C180        C  0.46876952  0.94909842  0.48950890    -0.10500
C181        C  0.49498509  0.92732183  0.49510612    -0.04300
C182        C  0.54311987  0.94844299  0.48920360    -0.10500
H183        H  0.67331977  0.07293734  0.45338368     0.07700
H184        H  0.63528124  0.99854742  0.47491096     0.07700
H185        H  0.46711288  0.07559903  0.45467227     0.07900
H186        H  0.42878187  0.00070966  0.47575244     0.07900
H187        H  0.62338807  0.17822124  0.42302116     0.04400
H188        H  0.47784255  0.89374169  0.50466625     0.04400
C189        C  0.62739136  0.52842420  0.43581957    -0.10500
C190        C  0.59931408  0.48027096  0.43025032    -0.04300
C191        C  0.55152322  0.45367978  0.43697322    -0.10500
C192        C  0.53066816  0.47548907  0.44993778     0.10500
C193        C  0.55854492  0.52433943  0.45585073    -0.02300
C194        C  0.60709106  0.55098807  0.44875206     0.10300
C195        C  0.63392803  0.59923046  0.45491793    -0.12300
C196        C  0.61364479  0.62097702  0.46780130    -0.12300
C197        C  0.56574588  0.59531320  0.47498040     0.10300
C198        C  0.53785433  0.54650733  0.46897049    -0.02300
C199        C  0.48288658  0.44972856  0.45728669    -0.12400
C200        C  0.46268947  0.47139461  0.47025528    -0.12400
C201        C  0.48945376  0.51968833  0.47628927     0.10500
C202        C  0.46928255  0.54197368  0.48951617    -0.10500
C203        C  0.49722122  0.59011705  0.49505989    -0.04300
C204        C  0.54491204  0.61692903  0.48816437    -0.10500
H205        H  0.67093101  0.62052466  0.44984580     0.07700
H206        H  0.63586201  0.65822388  0.47211034     0.07700
H207        H  0.46070698  0.41240680  0.45311904     0.07900
H208        H  0.42581147  0.44997097  0.47551589     0.07900
H209        H  0.61491359  0.46316303  0.42032265     0.04400
H210        H  0.48177556  0.60689114  0.50539009     0.04400
N211        N  0.72248697  0.57733137  0.02741888    -0.26900
N212        N  0.73143797  0.55820815  0.00885630    -0.34800
C213        C  0.69336903  0.53940510  0.99420796     0.01400
C214        C  0.65888687  0.54752283  0.00363702     0.07500
C215        C  0.67853935  0.57113383  0.02490680    -0.05600
H216        H  0.68946083  0.51805812  0.97876489     0.08100
H217        H  0.66055283  0.57950199  0.03852705     0.09300
Cu218      Cu  0.79260157  0.55270726  0.00558378     0.44200
Cu219      Cu  0.76754103  0.60400701  0.05721441     0.42000
Cu220      Cu  0.87532251  0.59669219  0.05485928     0.43900
N221        N  0.85619206  0.55114906  0.00615708    -0.34300
N222        N  0.88706389  0.56863004  0.02394901    -0.28600
C223        C  0.92277101  0.56023195  0.01975652    -0.04700
C224        C  0.91436073  0.53651537  0.99824201     0.07600
C225        C  0.87140548  0.53075528  0.99033225     0.01400
H226        H  0.95105543  0.56781676  0.03225571     0.09000
H227        H  0.85146263  0.51093319  0.97485996     0.08100
N228        N  0.85340781  0.61753019  0.08512277    -0.35700
N229        N  0.81487861  0.62107756  0.08592242    -0.27900
C230        C  0.80950201  0.63229006  0.10837299    -0.03200
C231        C  0.84627622  0.63597407  0.12257249     0.05400
C232        C  0.87307565  0.62587939  0.10705600     0.03500
H233        H  0.77976747  0.63559425  0.11416702     0.08600
H234        H  0.90307872  0.62196624  0.11159941     0.07500
N235        N  0.48112722  0.32987570  0.03053366    -0.26900
N236        N  0.49595161  0.31895710  0.01094111    -0.34800
C237        C  0.51457050  0.35679684  0.99608471     0.01400
C238        C  0.51069026  0.39284721  0.00676220     0.07500
C239        C  0.48980804  0.37466354  0.02867382    -0.05600
H240        H  0.53165969  0.35877280  0.97928458     0.08100
H241        H  0.48372842  0.39346548  0.04275425     0.09300
Cu242      Cu  0.49382792  0.25416596  0.00673724     0.44200
Cu243      Cu  0.45507540  0.28551312  0.06011552     0.42000
Cu244      Cu  0.45091042  0.17310620  0.05835606     0.43900
N245        N  0.49009774  0.18815966  0.00781458    -0.34300
N246        N  0.47359208  0.15856639  0.02624128    -0.28600
C247        C  0.47984914  0.12157673  0.02199069    -0.04700
C248        C  0.50103440  0.12775421  0.99984675     0.07600
C249        C  0.50758151  0.17071918  0.99155148     0.01400
H250        H  0.47315564  0.09417459  0.03492498     0.09000
H251        H  0.52666401  0.18948918  0.97563062     0.08100
N252        N  0.43691835  0.19981990  0.08920486    -0.35700
N253        N  0.43788769  0.24070065  0.08941948    -0.27900
C254        C  0.43146690  0.25051145  0.11188344    -0.03200
C255        C  0.42617132  0.21424113  0.12683418     0.05400
C256        C  0.43004095  0.18271281  0.11173734     0.03500
H257        H  0.43279868  0.28298245  0.11711208     0.08600
H258        H  0.43079764  0.15119007  0.11692701     0.07500
N259        N  0.70968448  0.15863552  0.02607787    -0.26900
N260        N  0.72402230  0.18392992  0.00611354    -0.34800
C261        C  0.68829559  0.16463050  0.99007129     0.01400
C262        C  0.64993369  0.12495418  0.00021805     0.07500
C263        C  0.66468720  0.12266478  0.02313269    -0.05600
H264        H  0.68888257  0.18034562  0.97293183     0.08100
H265        H  0.64293135  0.09888088  0.03725456     0.09300
Cu266      Cu  0.78904478  0.24757414  0.00256242     0.44200
Cu267      Cu  0.74841680  0.17818282  0.05791299     0.42000
Cu268      Cu  0.86265885  0.28657655  0.05531349     0.43900
N269        N  0.85379017  0.31185631  0.00444833    -0.34300
N270        N  0.88097887  0.32546862  0.02371995    -0.28600
C271        C  0.91728326  0.37015365  0.02046085    -0.04700
C272        C  0.91318002  0.38548380  0.99799283     0.07600
C273        C  0.87219140  0.34779668  0.98845836     0.01400
H274        H  0.94250808  0.39131200  0.03416355     0.09000
H275        H  0.85513993  0.34785613  0.97187790     0.08100
N276        N  0.83362104  0.24831203  0.08659896    -0.35700
N277        N  0.79168041  0.20892045  0.08777517    -0.27900
C278        C  0.78231034  0.19476925  0.11077930    -0.03200
C279        C  0.82003421  0.22714829  0.12478933     0.05400
C280        C  0.85202265  0.26023479  0.10871914     0.03500
H281        H  0.75044250  0.16340073  0.11680481     0.08600
H282        H  0.88572687  0.29146186  0.11287813     0.07500
C283        C  0.93796234  0.51054024  0.98970892    -0.10500
C284        C  0.91713231  0.46263208  0.99612912    -0.04300
C285        C  0.93745436  0.43548788  0.98971352    -0.10500
C286        C  0.98010714  0.45659808  0.97624317     0.10500
C287        C  0.00151075  0.50496972  0.96921577    -0.02300
C288        C  0.98051807  0.53212508  0.97605092     0.10300
C289        C  0.00241696  0.57989493  0.96884097    -0.12300
C290        C  0.04378239  0.60060966  0.95504810    -0.12300
C291        C  0.06501558  0.57440658  0.94800523     0.10300
C292        C  0.04390957  0.52618197  0.95524294    -0.02300
C293        C  0.00179232  0.43062821  0.96952561    -0.12400
C294        C  0.04339437  0.45146566  0.95589060    -0.12400
C295        C  0.06493102  0.49904880  0.94840680     0.10500
C296        C  0.10664864  0.52024809  0.93409769    -0.10500
C297        C  0.12637877  0.56760692  0.92688699    -0.04300
C298        C  0.10655076  0.59495922  0.93370837    -0.10500
H299        H  0.98744676  0.60161483  0.97368038     0.07700
H300        H  0.05895399  0.63741103  0.94985102     0.07700
H301        H  0.98654948  0.39379680  0.97467492     0.07900
H302        H  0.05844794  0.42979970  0.95108929     0.07900
H303        H  0.88474508  0.44626602  0.00663169     0.04400
H304        H  0.15811015  0.58367607  0.91588756     0.04400
N305        N  0.55227973  0.86589887  0.90432791    -0.26900
N306        N  0.54389666  0.84204560  0.92459692    -0.34800
C307        C  0.53230671  0.86384678  0.94141187     0.01400
C308        C  0.53441667  0.90380095  0.93135561     0.07500
C309        C  0.54667211  0.90342647  0.90775757    -0.05600
H310        H  0.51935002  0.84951550  0.95903505     0.08100
H311        H  0.54680367  0.92608104  0.89357275     0.09300
Cu312      Cu  0.54276079  0.77743895  0.92703256     0.44200
Cu313      Cu  0.56101038  0.84122518  0.87179257     0.42000
Cu314      Cu  0.56036417  0.73013437  0.87140379     0.43900
N315        N  0.54406698  0.71409158  0.92482493    -0.34300
N316        N  0.55116681  0.69742870  0.90474464    -0.28600
C317        C  0.54552265  0.65428694  0.90908340    -0.04700
C318        C  0.53497943  0.64324474  0.93305909     0.07600
C319        C  0.53367049  0.68178360  0.94234786     0.01400
H320        H  0.54506934  0.63084961  0.89539332     0.09000
H321        H  0.52219804  0.68438294  0.96005870     0.08100
N322        N  0.56247563  0.76716100  0.84044341    -0.35700
N323        N  0.56217257  0.80740844  0.84078107    -0.27900
C324        C  0.56315350  0.82216251  0.81822155    -0.03200
C325        C  0.56398880  0.78970934  0.80273013     0.05400
C326        C  0.56396650  0.75547977  0.81755151     0.03500
H327        H  0.56361999  0.85450524  0.81345392     0.08600
H328        H  0.56616134  0.72493855  0.81216566     0.07500
N329        N  0.16767482  0.47016474  0.90163363    -0.26900
N330        N  0.19005987  0.47956601  0.92239602    -0.34800
C331        C  0.16905133  0.49498748  0.93771823     0.01400
C332        C  0.13131379  0.49489089  0.92623259     0.07500
C333        C  0.13210336  0.47962581  0.90325645    -0.05600
H334        H  0.18225287  0.50842160  0.95539965     0.08100
H335        H  0.11025084  0.47834586  0.88839272     0.09300
Cu336      Cu  0.25213681  0.47667074  0.92787539     0.44200
Cu337      Cu  0.19033601  0.45002399  0.87124975     0.42000
Cu338      Cu  0.29420786  0.43696553  0.87816911     0.43900
N339        N  0.31517433  0.47434231  0.92869601    -0.34300
N340        N  0.32950286  0.45829481  0.91086426    -0.28600
C341        C  0.37347016  0.46651470  0.91574198    -0.04700
C342        C  0.38778433  0.48868267  0.93770975     0.07600
C343        C  0.35003873  0.49356878  0.94521729     0.01400
H344        H  0.39545366  0.46140495  0.90311360     0.09000
H345        H  0.34974760  0.51342590  0.96050444     0.08100
N346        N  0.26009041  0.42996806  0.84559560    -0.35700
N347        N  0.22227049  0.43448134  0.84309631    -0.27900
C348        C  0.21089857  0.43097473  0.81974094    -0.03200
C349        C  0.24342755  0.42470629  0.80684875     0.05400
C350        C  0.27393587  0.42395044  0.82387922     0.03500
H351        H  0.18224472  0.43475776  0.81252901     0.08600
H352        H  0.30464483  0.42047680  0.82067003     0.07500
N353        N  0.16478515  0.70453553  0.89939593    -0.26900
N354        N  0.18745098  0.71965603  0.91997544    -0.34800
C355        C  0.16742592  0.68389380  0.93602262     0.01400
C356        C  0.13023517  0.64464351  0.92505755     0.07500
C357        C  0.13001775  0.65892763  0.90179911    -0.05600
H358        H  0.18116242  0.68518221  0.95377965     0.08100
H359        H  0.10839418  0.63678202  0.88725800     0.09300
Cu360      Cu  0.24934580  0.78571051  0.92392274     0.44200
Cu361      Cu  0.18622906  0.74376093  0.86791244     0.42000
Cu362      Cu  0.29517649  0.85671235  0.86933839     0.43900
N363        N  0.31391343  0.84991816  0.92191965    -0.34300
N364        N  0.33033605  0.87554701  0.90215529    -0.28600
C365        C  0.37496833  0.91137718  0.90612684    -0.04700
C366        C  0.38724452  0.90871180  0.92952772     0.07600
C367        C  0.34785953  0.86889888  0.93887576     0.01400
H368        H  0.39829931  0.93515197  0.89240932     0.09000
H369        H  0.34560412  0.85263433  0.95606879     0.08100
N370        N  0.25564360  0.82777834  0.83825954    -0.35700
N371        N  0.21580684  0.78616701  0.83785343    -0.27900
C372        C  0.19991264  0.77597851  0.81522220    -0.03200
C373        C  0.23089503  0.81317755  0.80058807     0.05400
C374        C  0.26606583  0.84527582  0.81583165     0.03500
H375        H  0.16852579  0.74356186  0.80977160     0.08600
H376        H  0.29768466  0.87801986  0.81089632     0.07500
C377        C  0.59993483  0.10141404  0.99191828    -0.10500
C378        C  0.57394447  0.12331708  0.99763748    -0.04300
C379        C  0.52603175  0.10323090  0.99139054    -0.10500
C380        C  0.50325997  0.06003168  0.97845203     0.10500
C381        C  0.52912772  0.03729069  0.97239430    -0.02300
C382        C  0.57754220  0.05786321  0.97930077     0.10300
C383        C  0.60218728  0.03439719  0.97336698    -0.12300
C384        C  0.57997760  0.99179164  0.96066330    -0.12300
C385        C  0.53230116  0.97101330  0.95341479     0.10300
C386        C  0.50651151  0.99386710  0.95940914    -0.02300
C387        C  0.45551830  0.03912133  0.97127593    -0.12400
C388        C  0.43352912  0.99689408  0.95828643    -0.12400
C389        C  0.45832286  0.97371375  0.95216282     0.10500
C390        C  0.43639486  0.93103150  0.93885997    -0.10500
C391        C  0.46227841  0.90909816  0.93316252    -0.04300
C392        C  0.50967244  0.92826381  0.94011278    -0.10500
H393        H  0.63897412  0.04895880  0.97844168     0.07700
H394        H  0.60056469  0.97522151  0.95648594     0.07700
H395        H  0.43483522  0.05555392  0.97550610     0.07900
H396        H  0.39681949  0.98246240  0.95307695     0.07900
H397        H  0.59115010  0.15626753  0.00760090     0.04400
H398        H  0.44539032  0.87679526  0.92267316     0.04400
C399        C  0.53385894  0.44317231  0.99903116    -0.10500
C400        C  0.58212704  0.47247698  0.00431299    -0.04300
C401        C  0.60736269  0.52038799  0.99751537    -0.10500
C402        C  0.58344463  0.53981050  0.98467782     0.10500
C403        C  0.53432826  0.51039786  0.97906058    -0.02300
C404        C  0.50938333  0.46208028  0.98650714     0.10300
C405        C  0.46081614  0.43376763  0.98093248    -0.12300
C406        C  0.43724350  0.45202534  0.96781617    -0.12300
C407        C  0.46131599  0.49930797  0.95972019     0.10300
C408        C  0.51025656  0.52901996  0.96556693    -0.02300
C409        C  0.60726064  0.58737377  0.97690762    -0.12400
C410        C  0.58372087  0.60556206  0.96353851    -0.12400
C411        C  0.53538146  0.57698490  0.95752261     0.10500
C412        C  0.51143814  0.59467031  0.94343622    -0.10500
C413        C  0.46330668  0.56485389  0.93797405    -0.04300
C414        C  0.43789733  0.51768439  0.94580710    -0.10500
H415        H  0.44064554  0.39695900  0.98652351     0.07700
H416        H  0.39994261  0.42861410  0.96389372     0.07700
H417        H  0.64452153  0.61077763  0.98091974     0.07900
H418        H  0.60381733  0.64229008  0.95780548     0.07900
H419        H  0.60050154  0.45761271  0.01389690     0.04400
H420        H  0.44539747  0.57845516  0.92700774     0.04400
C421        C  0.27765822  0.83476702  0.68642323    -0.11000
C422        C  0.23346033  0.81943147  0.69712535     0.15500
C423        C  0.19313940  0.80488631  0.68248518     0.02400
C424        C  0.19819839  0.80708714  0.65756484    -0.15400
C425        C  0.24267088  0.82328122  0.64672320    -0.10200
C426        C  0.28251290  0.83567750  0.66155040     0.09200
C427        C  0.23053805  0.81684579  0.72356967     0.10200
S428        S  0.13417394  0.78208599  0.69441062    -0.24500
H429        H  0.16711678  0.79657361  0.64654769     0.20500
S430        S  0.33944877  0.84869769  0.65018952    -0.30200
H431        H  0.30836738  0.84442094  0.69761475     0.10800
C432        C  0.21829361  0.77455992  0.73595721     0.04000
C433        C  0.21773953  0.77415219  0.76104291    -0.12500
C434        C  0.22919424  0.81523606  0.77409545    -0.08200
C435        C  0.23993068  0.85717843  0.76150301     0.07400
C436        C  0.24131742  0.85772709  0.73647616    -0.13200
S437        S  0.20454714  0.72146626  0.71977022    -0.30200
H438        H  0.20948374  0.74195238  0.77055977     0.11700
S439        S  0.24983809  0.91038611  0.77614621    -0.27300
H440        H  0.25007456  0.89008856  0.72692867     0.08900
H441        H  0.32034678  0.81436645  0.63203662     0.27300
H442        H  0.19413640  0.69167994  0.73981432     0.22100
H443        H  0.21718309  0.88663265  0.79471439     0.27400
H444        H  0.14793587  0.80712555  0.71602816     0.16300
C445        C  0.28751172  0.44973181  0.74232164    -0.11000
C446        C  0.24617882  0.41797254  0.72982892     0.15500
C447        C  0.20485166  0.38674625  0.74289499     0.02400
C448        C  0.20507665  0.38972546  0.76789997    -0.15400
C449        C  0.24605661  0.42236798  0.78041849    -0.10200
C450        C  0.28786794  0.45253393  0.76733160     0.09200
C451        C  0.24615929  0.42183797  0.70331088     0.10200
S452        S  0.15044470  0.34314777  0.72871172    -0.24500
H453        H  0.17293677  0.36615927  0.77771970     0.20500
S454        S  0.34175215  0.49776905  0.78120593    -0.30200
H455        H  0.31922483  0.47408514  0.73241264     0.10800
C456        C  0.22886403  0.44859649  0.69192907     0.04000
C457        C  0.23177075  0.45379897  0.66692943    -0.12500
C458        C  0.25116744  0.43233741  0.65278658    -0.08200
C459        C  0.26629746  0.40351932  0.66432619     0.07400
C460        C  0.26475699  0.39964871  0.68935348    -0.13200
S461        S  0.20422633  0.47723459  0.70939903    -0.30200
H462        H  0.21982953  0.47569885  0.65841765     0.11700
S463        S  0.28505947  0.36827437  0.64829454    -0.27300
H464        H  0.27717342  0.37822536  0.69802665     0.08900
H465        H  0.31881481  0.51024963  0.79842160     0.27300
H466        H  0.19251933  0.49708379  0.69010157     0.22100
H467        H  0.25237580  0.35691931  0.62950409     0.27400
H468        H  0.17165225  0.33711997  0.70828771     0.16300
C469        C  0.57244046  0.82943014  0.68671370    -0.11000
C470        C  0.59590832  0.81166176  0.70045892     0.15500
C471        C  0.62397867  0.79623209  0.68889986     0.02400
C472        C  0.62703392  0.79786732  0.66392306    -0.15400
C473        C  0.60352651  0.81562749  0.65006187    -0.10200
C474        C  0.57552848  0.83123332  0.66176816     0.09200
C475        C  0.58761708  0.80660686  0.72660892     0.10200
S476        S  0.65713398  0.77465474  0.70503382    -0.24500
H477        H  0.64878752  0.78603427  0.65525338     0.20500
S478        S  0.53997409  0.85053527  0.64613357    -0.30200
H479        H  0.55021209  0.84056164  0.69550519     0.10800
C480        C  0.60665404  0.84639509  0.74171749     0.04000
C481        C  0.59767693  0.83980229  0.76635108    -0.12500
C482        C  0.56929048  0.79421819  0.77628420    -0.08200
C483        C  0.54825459  0.75463167  0.76077263     0.07400
C484        C  0.55850071  0.76118913  0.73629881    -0.13200
S485        S  0.64378829  0.90546032  0.72974484    -0.27800
H486        H  0.61387813  0.87034427  0.77800038     0.11700
S487        S  0.50561356  0.69540124  0.77059326    -0.27300
H488        H  0.54257520  0.73070532  0.72454588     0.08900
H489        H  0.52572705  0.81645678  0.62794618     0.27300
H490        H  0.64841796  0.93004966  0.75104807     0.22100
H491        H  0.48447914  0.71000089  0.78781008     0.27400
H492        H  0.66500584  0.80219969  0.72558607     0.16300
C493        C  0.79661534  0.21449321  0.19206441    -0.11000
C494        C  0.84169131  0.22736391  0.20103274     0.15500
C495        C  0.87940519  0.23996831  0.18485970     0.02400
C496        C  0.87125081  0.23981346  0.16024202    -0.15400
C497        C  0.82611337  0.22702449  0.15115816    -0.10200
C498        C  0.78859612  0.21500527  0.16748351     0.09200
C499        C  0.84849021  0.23032389  0.22734292     0.10200
S500        S  0.93888333  0.25743123  0.19438720    -0.24500
H501        H  0.90042660  0.24930860  0.14803472     0.20500
S502        S  0.73084701  0.20388891  0.15846762    -0.30200
H503        H  0.76783778  0.20582062  0.20442817     0.10800
C504        C  0.86634121  0.27375335  0.23947731     0.04000
C505        C  0.86915086  0.27459246  0.26454679    -0.12500
C506        C  0.85384312  0.23270873  0.27785718    -0.08200
C507        C  0.83770202  0.18949357  0.26548709     0.07400
C508        C  0.83460053  0.18869439  0.24048612    -0.13200
S509        S  0.88342888  0.32775127  0.22303792    -0.30200
H510        H  0.88152209  0.30774187  0.27387092     0.11700
S511        S  0.82179643  0.13440950  0.28040956    -0.27300
H512        H  0.82136643  0.15536541  0.23116506     0.08900
H513        H  0.74820145  0.23882941  0.14044033     0.27300
H514        H  0.89390882  0.35743434  0.24297513     0.22100
H515        H  0.85488322  0.15536066  0.29907568     0.27400
H516        H  0.92646972  0.23302979  0.21630925     0.16300
C517        C  0.85518428  0.67056502  0.24054156    -0.11000
C518        C  0.85531714  0.63540031  0.22634471     0.15500
C519        C  0.85612560  0.59702827  0.23762434     0.02400
C520        C  0.85576266  0.59422927  0.26264760    -0.15400
C521        C  0.85369672  0.62837255  0.27686529    -0.10200
C522        C  0.85485132  0.66772480  0.26557324     0.09200
C523        C  0.85340993  0.63901121  0.19991087     0.10200
S524        S  0.85717498  0.55017861  0.22125253    -0.24500
H525        H  0.85534783  0.56411754  0.27109634     0.20500
S526        S  0.85772892  0.71626409  0.28208627    -0.30200
H527        H  0.85541331  0.70052519  0.23202469     0.10800
C528        C  0.80972168  0.62155208  0.18793956     0.04000
C529        C  0.80869290  0.62233185  0.16285322    -0.12500
C530        C  0.85059983  0.64092260  0.14920263    -0.08200
C531        C  0.89472617  0.66119980  0.16149871     0.07400
C532        C  0.89549702  0.65909735  0.18656019    -0.13200
S533        S  0.75497756  0.59638276  0.20469344    -0.30200
H534        H  0.77471428  0.60686310  0.15386252     0.11700
S535        S  0.95142650  0.69235572  0.14661797    -0.27300
H536        H  0.92926247  0.67363946  0.19577693     0.08900
H537        H  0.88428232  0.71366770  0.30124410     0.27300
H538        H  0.72436715  0.58535375  0.18499382     0.22100
H539        H  0.93611945  0.71164661  0.12858362     0.27400
H540        H  0.83427577  0.55267411  0.20052150     0.16300
C541        C  0.40457864  0.17589779  0.19254882    -0.11000
C542        C  0.43213033  0.21967861  0.20400838     0.15500
C543        C  0.45577678  0.26147861  0.19007133     0.02400
C544        C  0.45237619  0.25838113  0.16515364    -0.15400
C545        C  0.42558805  0.21457168  0.15347182    -0.10200
C546        C  0.40024056  0.17297270  0.16756507     0.09200
C547        C  0.43527120  0.22085309  0.23045130     0.10200
S548        S  0.49007271  0.32018364  0.20270652    -0.24500
H549        H  0.47182512  0.29075722  0.15478345     0.20500
S550        S  0.35950056  0.11571980  0.15504325    -0.30200
H551        H  0.38541954  0.14385591  0.20321465     0.10800
C552        C  0.40414159  0.22829419  0.24465658     0.04000
C553        C  0.41071038  0.23263159  0.26954604    -0.12500
C554        C  0.44761275  0.22929233  0.28055685    -0.08200
C555        C  0.47888352  0.22204781  0.26614233     0.07400
C556        C  0.47189888  0.21717431  0.24139420    -0.13200
S557        S  0.35607841  0.23214418  0.23100635    -0.30200
H558        H  0.38669916  0.23809827  0.28054676     0.11700
S559        S  0.53017569  0.22180459  0.27791875    -0.27300
H560        H  0.49635441  0.21226262  0.23042144     0.08900
H561        H  0.34363130  0.13357882  0.13656255     0.27300
H562        H  0.33699186  0.23818039  0.25227108     0.22100
H563        H  0.54083634  0.25690855  0.29518993     0.27400
H564        H  0.50001309  0.30749452  0.22500244     0.16300
loop_ 
_geom_bond_atom_site_label_1 
_geom_bond_atom_site_label_2 
_geom_bond_distance 
_geom_bond_site_symmetry_2 
_ccdc_geom_bond_type 
N1            N2   1.323       .  A
N1            C5   1.347       .  A
N1           Cu9   2.086       .  S
N2            C3   1.346       .  A
N2           Cu8   2.080       .  S
C3            C4   1.383       .  A
C3            H6   1.081       .  S
C4            C5   1.384       .  A
C4          C191   1.477       .  S
C5            H7   1.082       .  S
Cu8          N11   2.080       .  S
Cu9          N19   2.086       .  S
Cu10         N12   2.075       .  S
Cu10         N18   2.076       .  S
N11          N12   1.322       .  A
N11          C15   1.347       .  A
N12          C13   1.345       .  A
C13          C14   1.381       .  A
C13          H16   1.082       .  S
C14          C15   1.384       .  A
C14         C169   1.476       .  S
C15          H17   1.081       .  S
N18          N19   1.322       .  A
N18          C22   1.345       .  A
N19          C20   1.348       .  A
C20          C21   1.386       .  A
C20          H23   1.082       .  S
C21          C22   1.384       .  A
C21         C554   1.484       .  S
C22          H24   1.083       .  S
N25          N26   1.324       .  A
N25          C29   1.349       .  A
N25         Cu33   2.096       .  S
N26          C27   1.348       .  A
N26         Cu32   2.097       .  S
C27          C28   1.386       .  A
C27          H30   1.081       .  S
C28          C29   1.387       .  A
C28         C189   1.485       .  S
C29          H31   1.082       .  S
Cu32         N35   2.097       .  S
Cu33         N43   2.096       .  S
Cu34         N36   2.081       .  S
Cu34         N42   2.081       .  S
N35          N36   1.323       .  A
N35          C39   1.351       .  A
N36          C37   1.346       .  A
C37          C38   1.383       .  A
C37          H40   1.082       .  S
C38          C39   1.389       .  A
C38          C75   1.484       .  S
C39          H41   1.081       .  S
N42          N43   1.323       .  A
N42          C46   1.347       .  A
N43          C44   1.349       .  A
C44          C45   1.388       .  A
C44          H47   1.081       .  S
C45          C46   1.385       .  A
C45         C521   1.487       .  S
C46          H48   1.081       .  S
N49          N50   1.323       .  A
N49          C53   1.346       .  A
N49         Cu57   2.087       .  S
N50          C51   1.345       .  A
N50         Cu56   2.071       .  S
C51          C52   1.380       .  A
C51          H54   1.082       .  S
C52          C53   1.384       .  A
C52          C73   1.475       .  S
C53          H55   1.082       .  S
Cu56         N59   2.071       .  S
Cu57         N67   2.087       .  S
Cu58         N60   2.087       .  S
Cu58         N66   2.087       .  S
N59          N60   1.322       .  A
N59          C63   1.347       .  A
N60          C61   1.346       .  A
C61          C62   1.384       .  A
C61          H64   1.082       .  S
C62          C63   1.382       .  A
C62         C167   1.477       .  S
C63          H65   1.082       .  S
N66          N67   1.322       .  A
N66          C70   1.347       .  A
N67          C68   1.349       .  A
C68          C69   1.388       .  A
C68          H71   1.080       .  S
C69          C70   1.387       .  A
C69         C506   1.489       .  S
C70          H72   1.079       .  S
C73          C74   1.399       .  A
C73          C78   1.414   1_655  A
C74          C75   1.398       .  A
C74          H93   1.085       .  S
C75          C76   1.419   1_655  A
C76          C77   1.424       .  A
C76          C83   1.405       .  A
C77          C78   1.419       .  A
C77          C82   1.424       .  A
C78          C79   1.407       .  A
C79          C80   1.396       .  A
C79          H89   1.082       .  S
C80          C81   1.405       .  A
C80          H90   1.083       .  S
C81          C82   1.424       .  A
C81          C88   1.418       .  A
C82          C85   1.419       .  A
C83          C84   1.396       .  A
C83          H91   1.083       .  S
C84          C85   1.408       .  A
C84          H92   1.082       .  S
C85          C86   1.415       .  A
C86          C87   1.400       .  A
C86         C156   1.476       .  S
C87          C88   1.398       .  A
C87          H94   1.085       .  S
C88         C122   1.484       .  S
N95          N96   1.323       .  A
N95          C99   1.345       .  A
N95        Cu103   2.072       .  S
N96          C97   1.347       .  A
N96        Cu102   2.087       .  S
C97          C98   1.385       .  A
C97         H100   1.082       .  S
C98          C99   1.381       .  A
C98         C182   1.477       .  S
C99         H101   1.082       .  S
Cu102       N105   2.087       .  S
Cu103       N113   2.071       .  S
Cu104       N106   2.080       .  S
Cu104       N112   2.080       .  S
N105        N106   1.323       .  A
N105        C109   1.348       .  A
N106        C107   1.345       .  A
C107        C108   1.383       .  A
C107        H110   1.082       .  S
C108        C109   1.386       .  A
C108        C204   1.478       .  S
C109        H111   1.081       .  S
N112        N113   1.321       .  A
N112        C116   1.347       .  A
N113        C114   1.344       .  A
C114        C115   1.385       .  A
C114        H117   1.081       .  S
C115        C116   1.387       .  A
C115        C473   1.485       .  S
C116        H118   1.082       .  S
N119        N120   1.323       .  A
N119        C123   1.348       .  A
N119       Cu127   2.090       .  S
N120        C121   1.349       .  A
N120       Cu126   2.093       .  S
C121        C122   1.386       .  A
C121        H124   1.081       .  S
C122        C123   1.385       .  A
C123        H125   1.082       .  S
Cu126       N129   2.093       .  S
Cu127       N137   2.090       .  S
Cu128       N130   2.096       .  S
Cu128       N136   2.096       .  S
N129        N130   1.324       .  A
N129        C133   1.349       .  A
N130        C131   1.348       .  A
C131        C132   1.386       .  A
C131        H134   1.082       .  S
C132        C133   1.386       .  A
C132        C202   1.484       .  S
C133        H135   1.081       .  S
N136        N137   1.322       .  A
N136        C140   1.349       .  A
N137        C138   1.348       .  A
C138        C139   1.390       .  A
C138        H141   1.082       .  S
C139        C140   1.392       .  A
C139        C458   1.498       .  S
C140        H142   1.081       .  S
N143        N144   1.324       .  A
N143        C147   1.347       .  A
N143       Cu151   2.088       .  S
N144        C145   1.347       .  A
N144       Cu150   2.086       .  S
C145        C146   1.384       .  A
C145        H148   1.081       .  S
C146        C147   1.384       .  A
C146        C180   1.480       .  S
C147        H149   1.082       .  S
Cu150       N153   2.086       .  S
Cu151       N161   2.088       .  S
Cu152       N154   2.071       .  S
Cu152       N160   2.072       .  S
N153        N154   1.323       .  A
N153        C157   1.347       .  A
N154        C155   1.345       .  A
C155        C156   1.381       .  A
C155        H158   1.081       .  S
C156        C157   1.385       .  A
C157        H159   1.082       .  S
N160        N161   1.321       .  A
N160        C164   1.346       .  A
N161        C162   1.347       .  A
C162        C163   1.390       .  A
C162        H165   1.079       .  S
C163        C164   1.386       .  A
C163        C425   1.490       .  S
C164        H166   1.080       .  S
C167        C168   1.398       .  A
C167        C172   1.416       .  A
C168        C169   1.398       .  A
C168        H187   1.085       .  S
C169        C170   1.415       .  A
C170        C171   1.420       .  A
C170        C177   1.406       .  A
C171        C172   1.421       .  A
C171        C176   1.422       .  A
C172        C173   1.406       .  A
C173        C174   1.395       .  A
C173        H183   1.082       .  S
C174        C175   1.406   1_545  A
C174        H184   1.083   1_545  S
C175        C176   1.420   1_565  A
C175        C182   1.415       .  A
C176        C179   1.422   1_545  A
C177        C178   1.395       .  A
C177        H185   1.083       .  S
C178        C179   1.406   1_545  A
C178        H186   1.082       .  S
C179        C180   1.416       .  A
C180        C181   1.398       .  A
C181        C182   1.399       .  A
C181        H188   1.085       .  S
C189        C190   1.398       .  A
C189        C194   1.420       .  A
C190        C191   1.399       .  A
C190        H209   1.085       .  S
C191        C192   1.416       .  A
C192        C193   1.420       .  A
C192        C199   1.407       .  A
C193        C194   1.424       .  A
C193        C198   1.425       .  A
C194        C195   1.406       .  A
C195        C196   1.398       .  A
C195        H205   1.082       .  S
C196        C197   1.407       .  A
C196        H206   1.083       .  S
C197        C198   1.420       .  A
C197        C204   1.417       .  A
C198        C201   1.424       .  A
C199        C200   1.396       .  A
C199        H207   1.083       .  S
C200        C201   1.405       .  A
C200        H208   1.082       .  S
C201        C202   1.418       .  A
C202        C203   1.397       .  A
C203        C204   1.399       .  A
C203        H210   1.085       .  S
N211        N212   1.324       .  A
N211        C215   1.351       .  A
N211       Cu219   2.099       .  S
N212        C213   1.349   1_554  A
N212       Cu218   2.104       .  S
C213        C214   1.389   1_556  A
C213        H216   1.080       .  S
C214        C215   1.389       .  A
C214        C401   1.490   1_554  S
C215        H217   1.082       .  S
Cu218       N221   2.104       .  S
Cu219       N229   2.099       .  S
Cu220       N222   2.090       .  S
Cu220       N228   2.090       .  S
N221        N222   1.323       .  A
N221        C225   1.351   1_554  A
N222        C223   1.349       .  A
C223        C224   1.386   1_554  A
C223        H226   1.082       .  S
C224        C225   1.389       .  A
C224        C283   1.489       .  S
C225        H227   1.081       .  S
N228        N229   1.323       .  A
N228        C232   1.348       .  A
N229        C230   1.348       .  A
C230        C231   1.392       .  A
C230        H233   1.082       .  S
C231        C232   1.390       .  A
C231        C530   1.499       .  S
C232        H234   1.081       .  S
N235        N236   1.323       .  A
N235        C239   1.347       .  A
N235       Cu243   2.074       .  S
N236        C237   1.349   1_554  A
N236       Cu242   2.100       .  S
C237        C238   1.387   1_556  A
C237        H240   1.080       .  S
C238        C239   1.382       .  A
C238        C399   1.483   1_554  S
C239        H241   1.082       .  S
Cu242       N245   2.101       .  S
Cu243       N253   2.074       .  S
Cu244       N246   2.094       .  S
Cu244       N252   2.094       .  S
N245        N246   1.325       .  A
N245        C249   1.350   1_554  A
N246        C247   1.348       .  A
C247        C248   1.385   1_554  A
C247        H250   1.082       .  S
C248        C249   1.387       .  A
C248        C379   1.486       .  S
C249        H251   1.081       .  S
N252        N253   1.322       .  A
N252        C256   1.350       .  A
N253        C254   1.343       .  A
C254        C255   1.386       .  A
C254        H257   1.083       .  S
C255        C256   1.392       .  A
C255        C545   1.492       .  S
C256        H258   1.082       .  S
N259        N260   1.324       .  A
N259        C263   1.347       .  A
N259       Cu267   2.089       .  S
N260        C261   1.349   1_554  A
N260       Cu266   2.095       .  S
C261        C262   1.386   1_556  A
C261        H264   1.082       .  S
C262        C263   1.384       .  A
C262        C377   1.483   1_554  S
C263        H265   1.082       .  S
Cu266       N269   2.095       .  S
Cu267       N277   2.089       .  S
Cu268       N270   2.077       .  S
Cu268       N276   2.077       .  S
N269        N270   1.323       .  A
N269        C273   1.349   1_554  A
N270        C271   1.346       .  A
C271        C272   1.383   1_554  A
C271        H274   1.081       .  S
C272        C273   1.387       .  A
C272        C285   1.482       .  S
C273        H275   1.082       .  S
N276        N277   1.322       .  A
N276        C280   1.345       .  A
N277        C278   1.349       .  A
C278        C279   1.390       .  A
C278        H281   1.079       .  S
C279        C280   1.385       .  A
C279        C497   1.490       .  S
C280        H282   1.081       .  S
C283        C284   1.400       .  A
C283        C288   1.421       .  A
C284        C285   1.401       .  A
C284        H303   1.085   1_556  S
C285        C286   1.418       .  A
C286        C287   1.421   1_655  A
C286        C293   1.408   1_655  A
C287        C288   1.425   1_455  A
C287        C292   1.427       .  A
C288        C289   1.405   1_655  A
C289        C290   1.397       .  A
C289        H299   1.083   1_455  S
C290        C291   1.408       .  A
C290        H300   1.082       .  S
C291        C292   1.420       .  A
C291        C298   1.417       .  A
C292        C295   1.425       .  A
C293        C294   1.398       .  A
C293        H301   1.082   1_455  S
C294        C295   1.405       .  A
C294        H302   1.083       .  S
C295        C296   1.422       .  A
C296        C297   1.399       .  A
C296        C332   1.489       .  S
C297        C298   1.400       .  A
C297        H304   1.085       .  S
C298        C356   1.480       .  S
N305        N306   1.322       .  A
N305        C309   1.345       .  A
N305       Cu313   2.075       .  S
N306        C307   1.350       .  A
N306       Cu312   2.099       .  S
C307        C308   1.390       .  A
C307        H310   1.081       .  S
C308        C309   1.384       .  A
C308        C392   1.483       .  S
C309        H311   1.082       .  S
Cu312       N315   2.099       .  S
Cu313       N323   2.075       .  S
Cu314       N316   2.092       .  S
Cu314       N322   2.091       .  S
N315        N316   1.324       .  A
N315        C319   1.349       .  A
N316        C317   1.348       .  A
C317        C318   1.387       .  A
C317        H320   1.082       .  S
C318        C319   1.387       .  A
C318        C412   1.485       .  S
C319        H321   1.080       .  S
N322        N323   1.322       .  A
N322        C326   1.348       .  A
N323        C324   1.345       .  A
C324        C325   1.386       .  A
C324        H327   1.082       .  S
C325        C326   1.390       .  A
C325        C482   1.489       .  S
C326        H328   1.082       .  S
N329        N330   1.323       .  A
N329        C333   1.350       .  A
N329       Cu337   2.096       .  S
N330        C331   1.350       .  A
N330       Cu336   2.100       .  S
C331        C332   1.388       .  A
C331        H334   1.081       .  S
C332        C333   1.388       .  A
C333        H335   1.082       .  S
Cu336       N339   2.100       .  S
Cu337       N347   2.096       .  S
Cu338       N340   2.086       .  S
Cu338       N346   2.087       .  S
N339        N340   1.323       .  A
N339        C343   1.349       .  A
N340        C341   1.348       .  A
C341        C342   1.385       .  A
C341        H344   1.082       .  S
C342        C343   1.388       .  A
C342        C414   1.486       .  S
C343        H345   1.080       .  S
N346        N347   1.324       .  A
N346        C350   1.349       .  A
N347        C348   1.348       .  A
C348        C349   1.386       .  A
C348        H351   1.082       .  S
C349        C350   1.387       .  A
C349        C449   1.488       .  S
C350        H352   1.081       .  S
N353        N354   1.323       .  A
N353        C357   1.346       .  A
N353       Cu361   2.077       .  S
N354        C355   1.348       .  A
N354       Cu360   2.090       .  S
C355        C356   1.386       .  A
C355        H358   1.082       .  S
C356        C357   1.383       .  A
C357        H359   1.082       .  S
Cu360       N363   2.090       .  S
Cu361       N371   2.077       .  S
Cu362       N364   2.087       .  S
Cu362       N370   2.087       .  S
N363        N364   1.324       .  A
N363        C367   1.348       .  A
N364        C365   1.347       .  A
C365        C366   1.384       .  A
C365        H368   1.082       .  S
C366        C367   1.385       .  A
C366        C390   1.481       .  S
C367        H369   1.082       .  S
N370        N371   1.322       .  A
N370        C374   1.348       .  A
N371        C372   1.346       .  A
C372        C373   1.385       .  A
C372        H375   1.080       .  S
C373        C374   1.389       .  A
C373        C434   1.487       .  S
C374        H376   1.079       .  S
C377        C378   1.400       .  A
C377        C382   1.419       .  A
C378        C379   1.399       .  A
C378        H397   1.085   1_556  S
C379        C380   1.419       .  A
C380        C381   1.424       .  A
C380        C387   1.406       .  A
C381        C382   1.422       .  A
C381        C386   1.426   1_545  A
C382        C383   1.408       .  A
C383        C384   1.398   1_545  A
C383        H393   1.082       .  S
C384        C385   1.406       .  A
C384        H394   1.084       .  S
C385        C386   1.424       .  A
C385        C392   1.419       .  A
C386        C389   1.422       .  A
C387        C388   1.397   1_545  A
C387        H395   1.083       .  S
C388        C389   1.406       .  A
C388        H396   1.082       .  S
C389        C390   1.417       .  A
C390        C391   1.398       .  A
C391        C392   1.398       .  A
C391        H398   1.085       .  S
C399        C400   1.399   1_556  A
C399        C404   1.417       .  A
C400        C401   1.401   1_554  A
C400        H419   1.085       .  S
C401        C402   1.424       .  A
C402        C403   1.425       .  A
C402        C409   1.407       .  A
C403        C404   1.422       .  A
C403        C408   1.428       .  A
C404        C405   1.407       .  A
C405        C406   1.396       .  A
C405        H415   1.083       .  S
C406        C407   1.405       .  A
C406        H416   1.082       .  S
C407        C408   1.425       .  A
C407        C414   1.419       .  A
C408        C411   1.423       .  A
C409        C410   1.401       .  A
C409        H417   1.082       .  S
C410        C411   1.408       .  A
C410        H418   1.083       .  S
C411        C412   1.421       .  A
C412        C413   1.400       .  A
C413        C414   1.398       .  A
C413        H420   1.085       .  S
C421        C422   1.401       .  A
C421        C426   1.401       .  A
C421        H431   1.084       .  S
C422        C423   1.412       .  A
C422        C427   1.483       .  S
C423        C424   1.403       .  A
C423        S428   1.805       .  S
C424        C425   1.407       .  A
C424        H429   1.083       .  S
C425        C426   1.417       .  A
C426        S430   1.802       .  S
C427        C432   1.408       .  A
C427        C436   1.402       .  A
S428        H444   1.404       .  S
S430        H441   1.407       .  S
C432        C433   1.405       .  A
C432        S437   1.806       .  S
C433        C434   1.407       .  A
C433        H438   1.083       .  S
C434        C435   1.416       .  A
C435        C436   1.402       .  A
C435        S439   1.802       .  S
C436        H440   1.084       .  S
S437        H442   1.407       .  S
S439        H443   1.407       .  S
C445        C446   1.403       .  A
C445        C450   1.404       .  A
C445        H455   1.084       .  S
C446        C447   1.414       .  A
C446        C451   1.490       .  S
C447        C448   1.404       .  A
C447        S452   1.803       .  S
C448        C449   1.405       .  A
C448        H453   1.084       .  S
C449        C450   1.416       .  A
C450        S454   1.802       .  S
C451        C456   1.409       .  A
C451        C460   1.402       .  A
S452        H468   1.405       .  S
S454        H465   1.406       .  S
C456        C457   1.407       .  A
C456        S461   1.807       .  S
C457        C458   1.408       .  A
C457        H462   1.083       .  S
C458        C459   1.420       .  A
C459        C460   1.405       .  A
C459        S463   1.801       .  S
C460        H464   1.084       .  S
S461        H466   1.406       .  S
S463        H467   1.407       .  S
C469        C470   1.401       .  A
C469        C474   1.400       .  A
C469        H479   1.084       .  S
C470        C471   1.412       .  A
C470        C475   1.483       .  S
C471        C472   1.401       .  A
C471        S476   1.803       .  S
C472        C473   1.405       .  A
C472        H477   1.084       .  S
C473        C474   1.418       .  A
C474        S478   1.802       .  S
C475        C480   1.408       .  A
C475        C484   1.402       .  A
S476        H492   1.406       .  S
S478        H489   1.407       .  S
C480        C481   1.404       .  A
C480        S485   1.806       .  S
C481        C482   1.408       .  A
C481        H486   1.082       .  S
C482        C483   1.417       .  A
C483        C484   1.401       .  A
C483        S487   1.802       .  S
C484        H488   1.084       .  S
S485        H490   1.407       .  S
S487        H491   1.407       .  S
C493        C494   1.402       .  A
C493        C498   1.402       .  A
C493        H503   1.084       .  S
C494        C495   1.413       .  A
C494        C499   1.486       .  S
C495        C496   1.403       .  A
C495        S500   1.804       .  S
C496        C497   1.407       .  A
C496        H501   1.083       .  S
C497        C498   1.416       .  A
C498        S502   1.802       .  S
C499        C504   1.409       .  A
C499        C508   1.402       .  A
S500        H516   1.404       .  S
S502        H513   1.407       .  S
C504        C505   1.406       .  A
C504        S509   1.806       .  S
C505        C506   1.406       .  A
C505        H510   1.082       .  S
C506        C507   1.417       .  A
C507        C508   1.403       .  A
C507        S511   1.803       .  S
C508        H512   1.083       .  S
S509        H514   1.407       .  S
S511        H515   1.407       .  S
C517        C518   1.404       .  A
C517        C522   1.404       .  A
C517        H527   1.084       .  S
C518        C519   1.414       .  A
C518        C523   1.488       .  S
C519        C520   1.404       .  A
C519        S524   1.806       .  S
C520        C521   1.405       .  A
C520        H525   1.084       .  S
C521        C522   1.414       .  A
C522        S526   1.803       .  S
C523        C528   1.408       .  A
C523        C532   1.402       .  A
S524        H540   1.404       .  S
S526        H537   1.407       .  S
C528        C529   1.406       .  A
C528        S533   1.806       .  S
C529        C530   1.409       .  A
C529        H534   1.082       .  S
C530        C531   1.421       .  A
C531        C532   1.406       .  A
C531        S535   1.802       .  S
C532        H536   1.084       .  S
S533        H538   1.406       .  S
S535        H539   1.407       .  S
C541        C542   1.403       .  A
C541        C546   1.405       .  A
C541        H551   1.084       .  S
C542        C543   1.412       .  A
C542        C547   1.483       .  S
C543        C544   1.400       .  A
C543        S548   1.807       .  S
C544        C545   1.407       .  A
C544        H549   1.084       .  S
C545        C546   1.417       .  A
C546        S550   1.802       .  S
C547        C552   1.409       .  A
C547        C556   1.401       .  A
S548        H564   1.402       .  S
S550        H561   1.407       .  S
C552        C553   1.407       .  A
C552        S557   1.805       .  S
C553        C554   1.405       .  A
C553        H558   1.084       .  S
C554        C555   1.416       .  A
C555        C556   1.401       .  A
C555        S559   1.803       .  S
C556        H560   1.085       .  S
S557        H562   1.407       .  S
S559        H563   1.407       .  S
