geometry optimzed in LAMMPS
_audit_creation_date              2020-11-30 
_audit_creation_method            'lammps2cif' 
_symmetry_space_group_name_H-M    'P1' 
_symmetry_Int_Tables_number       1 
_symmetry_cell_setting            triclinic 
loop_ 
_symmetry_equiv_pos_as_xyz 
  x,y,z 
_cell_length_a                    40.50138777038087 
_cell_length_b                    40.225092880194644 
_cell_length_c                    40.28187496019855 
_cell_angle_alpha                 89.88844536603783 
_cell_angle_beta                  89.91467162807358 
_cell_angle_gamma                 89.60501012549648 
loop_ 
_atom_site_label 
_atom_site_type_symbol 
_atom_site_fract_x 
_atom_site_fract_y 
_atom_site_fract_z 
_atom_site_charge 
O1          O  0.17354342  0.69077678  0.44752421    -0.83010
C2          C  0.10206648  0.68773925  0.33560184     0.96340
O3          O  0.13041667  0.67371661  0.33512858    -0.72130
O4          O  0.17297719  0.71666616  0.36118924    -0.75720
Al5        Al  0.16174524  0.67161858  0.37122954     1.48980
C6          C  0.17662284  0.74099164  0.38055465     0.91600
O7          O  0.09523353  0.73415539  0.42082131    -0.81940
O8          O  0.10198941  0.63628484  0.44210698    -0.75500
Al9        Al  0.13520940  0.71054256  0.43265441     1.90120
O10         O  0.06641952  0.68848483  0.42231402    -0.74570
O11         O  0.10652648  0.61910692  0.37648809    -0.74420
O12         O  0.08203835  0.68167945  0.35924805    -0.80080
O13         O  0.15944928  0.62448438  0.37792197    -0.78280
O14         O  0.13050315  0.68033732  0.40122900    -1.14420
O15         O  0.19616994  0.67016496  0.40185174    -0.73610
C16         C  0.19748463  0.67845877  0.43181999     0.97110
C17         C  0.06791867  0.71938389  0.42385427     0.93500
Al18       Al  0.09253570  0.65806576  0.39972479     1.55560
O19         O  0.16079358  0.74213830  0.40756261    -0.78230
C20         C  0.13460531  0.60607011  0.37756903     0.97670
C21         C  0.10730699  0.65345613  0.46833491     0.92550
O22         O  0.11353006  0.68432271  0.46606622    -0.83550
O23         O  0.32470981  0.71326196  0.50794970    -0.83010
C24         C  0.38794371  0.68757757  0.62098824     0.96340
O25         O  0.35895622  0.67599644  0.61787690    -0.72130
O26         O  0.32331511  0.72631845  0.59385243    -0.75720
Al27       Al  0.33041794  0.68166719  0.58037530     1.48980
C28         C  0.32425002  0.75316493  0.57764435     0.91600
O29         O  0.40773616  0.73950786  0.53840458    -0.81940
O30         O  0.38745069  0.64572525  0.51161882    -0.75500
Al31       Al  0.36482954  0.72378548  0.52508542     1.90120
O32         O  0.42971798  0.69017044  0.53434577    -0.74570
O33         O  0.38030038  0.62451442  0.57585552    -0.74420
O34         O  0.40941132  0.68289347  0.59797953    -0.80080
O35         O  0.32881379  0.63558138  0.56994577    -0.78280
O36         O  0.36411444  0.69003550  0.55355228    -1.14420
O37         O  0.29872791  0.68601307  0.54752463    -0.73610
C38         C  0.30009005  0.69833848  0.51898639     0.97110
C39         C  0.43255430  0.72094787  0.53344110     0.93500
Al40       Al  0.39883891  0.66303673  0.55514631     1.55560
O41         O  0.34361749  0.75598731  0.55315108    -0.78230
C42         C  0.35137332  0.61433239  0.57300901     0.97670
C43         C  0.38333864  0.66494360  0.48641060     0.92550
O44         O  0.38265788  0.69641713  0.48995544    -0.83550
O45         O  0.20295332  0.96851608  0.64512562    -0.83010
C46         C  0.21256154  0.84480646  0.59145160     0.96340
O47         O  0.20064506  0.84794238  0.62041204    -0.72130
O48         O  0.24040516  0.88317161  0.65626879    -0.75720
Al49       Al  0.19516008  0.88814297  0.64530076     1.48980
C50         C  0.26144243  0.90558175  0.65994363     0.91600
O51         O  0.25531399  0.93175058  0.57606251    -0.81940
O52         O  0.15636449  0.94845055  0.57443703    -0.75500
Al53       Al  0.22805875  0.94915772  0.61166240     1.90120
O54         O  0.21141287  0.92460007  0.54490869    -0.74570
O55         O  0.14100751  0.88525178  0.58983299    -0.74420
O56         O  0.20444440  0.86505991  0.56856334    -0.80080
O57         O  0.14860824  0.88908270  0.64263918    -0.78280
O58         O  0.20107673  0.91436610  0.61029098    -1.14420
O59         O  0.18917715  0.92424645  0.67414390    -0.73610
C60         C  0.18857228  0.95533733  0.66947511     0.97110
C61         C  0.24213603  0.92686238  0.54790936     0.93500
Al62       Al  0.17986609  0.90606637  0.57263556     1.55560
O63         O  0.25880165  0.93243538  0.64410581    -0.78230
C64         C  0.12933208  0.88564161  0.61864307     0.97670
C65         C  0.17233042  0.97567965  0.57384270     0.92550
O66         O  0.20266936  0.97613322  0.58154164    -0.83550
O67         O  0.19799668  0.01786829  0.78735182    -0.83010
C68         C  0.20806477  0.12220744  0.86423541     0.96340
O69         O  0.20576394  0.11776991  0.83333119    -0.72130
O70         O  0.21871557  0.08185426  0.78059353    -0.75720
Al71       Al  0.18156115  0.08683191  0.81061174     1.48980
C72         C  0.24743363  0.07031208  0.78474466     0.91600
O73         O  0.24645939  0.02205975  0.86928971    -0.81940
O74         O  0.16356976  0.01064116  0.88310031    -0.75500
Al75       Al  0.22092154  0.02341460  0.82848164     1.90120
O76         O  0.21369615  0.05000861  0.90256162    -0.74570
O77         O  0.13263339  0.06300226  0.86555341    -0.74420
O78         O  0.18941801  0.10560962  0.88422860    -0.80080
O79         O  0.14028838  0.10194178  0.82987650    -0.78280
O80         O  0.19319662  0.05558042  0.84043518    -1.14420
O81         O  0.15758125  0.05585671  0.78713656    -0.73610
C82         C  0.17028574  0.02907305  0.77700299     0.97110
C83         C  0.23901173  0.03316798  0.89771163     0.93500
Al84       Al  0.17593205  0.05775642  0.88067234     1.55560
O85         O  0.25331961  0.05261667  0.80991591    -0.78230
C86         C  0.12096218  0.08326518  0.84545856     0.97670
C87         C  0.17311831  0.98598596  0.86577022     0.92550
O88         O  0.19442956  0.98972812  0.84361187    -0.83550
O89         O  0.47256891  0.14013915  0.70429003    -0.83010
C90         C  0.34986277  0.09942540  0.68631015     0.96340
O91         O  0.35908057  0.12953130  0.68198475    -0.72130
O92         O  0.40205129  0.16365828  0.71755714    -0.75720
Al93       Al  0.40199002  0.14853911  0.67394155     1.48980
C94         C  0.41246682  0.15498544  0.74538283     0.91600
O95         O  0.43026809  0.06040177  0.72953186    -0.81940
O96         O  0.45434576  0.07933310  0.63536573    -0.75500
Al97       Al  0.44900017  0.10217889  0.71424224     1.90120
O98         O  0.42424857  0.04169470  0.67952970    -0.74570
O99         O  0.39317301  0.09661553  0.61607935    -0.74420
O100        O  0.36715453  0.07495059  0.67502900    -0.80080
O101        O  0.39906774  0.14810076  0.62703083    -0.78280
O102        O  0.42029699  0.10942852  0.68125252    -1.14420
O103        O  0.44332463  0.16813035  0.66700504    -0.73610
C104        C  0.46936986  0.16341706  0.68374002     0.97110
C105        C  0.42829003  0.03630118  0.70954599     0.93500
Al106      Al  0.41041280  0.07659651  0.65432369     1.55560
O107        O  0.42498447  0.12616542  0.74893534    -0.78230
C108        C  0.39373294  0.12581317  0.60643797     0.97670
C109        C  0.48053491  0.07857405  0.65318583     0.92550
O110        O  0.47924513  0.07990074  0.68474546    -0.83550
O111        O  0.52932933  0.29968784  0.69131974    -0.83010
C112        C  0.63463325  0.37837362  0.68009678     0.96340
O113        O  0.63645063  0.34956469  0.66705085    -0.72130
O114        O  0.61299188  0.30510883  0.70981095    -0.75720
Al115      Al  0.60199794  0.31667073  0.66532565     1.48980
C116        C  0.59500463  0.30247178  0.73519456     0.91600
O117        O  0.55149282  0.38515254  0.72669301    -0.81940
O118        O  0.52858569  0.37207251  0.63045098    -0.75500
Al119      Al  0.54143480  0.34180886  0.70641742     1.90120
O120        O  0.54493082  0.41049747  0.67971145    -0.74570
O121        O  0.59412183  0.37161878  0.61249726    -0.74420
O122        O  0.60978297  0.39721679  0.67428955    -0.80080
O123        O  0.59448074  0.31854473  0.61876234    -0.78280
O124        O  0.57094564  0.34673056  0.67447954    -1.14420
O125        O  0.57318075  0.28144837  0.66388901    -0.73610
C126        C  0.54494427  0.27734364  0.67573262     0.97110
C127        C  0.54803918  0.41184926  0.71025789     0.93500
Al128      Al  0.56996345  0.38446782  0.65112022     1.55560
O129        O  0.56961857  0.32066095  0.73829065    -0.78230
C130        C  0.59377031  0.34327657  0.60002947     0.97670
C131        C  0.50307246  0.36501406  0.64801304     0.92550
O132        O  0.50568998  0.35881656  0.67899396    -0.83550
O133        O  0.66233299  0.18609358  0.95302873    -0.83010
C134        C  0.60364998  0.19259264  0.83128793     0.96340
O135        O  0.63160028  0.17858069  0.83324000    -0.72130
O136        O  0.66353525  0.22436428  0.86544377    -0.75720
Al137      Al  0.65790403  0.17839095  0.87258853     1.48980
C138        C  0.66925241  0.24502189  0.88802855     0.91600
O139        O  0.58526406  0.23405665  0.92299803    -0.81940
O140        O  0.59379575  0.13521679  0.93598285    -0.75500
Al141      Al  0.62520037  0.20958687  0.93533083     1.90120
O142        O  0.55864118  0.18777045  0.91221445    -0.74570
O143        O  0.60804267  0.12096250  0.87167446    -0.74420
O144        O  0.58126702  0.18443462  0.85201117    -0.80080
O145        O  0.65956748  0.13194587  0.87729639    -0.78280
O146        O  0.62385085  0.18272479  0.90024259    -1.14420
O147        O  0.68891488  0.17742785  0.90623220    -0.73610
C148        C  0.68738608  0.17581632  0.93732597     0.97110
C149        C  0.55833368  0.21796727  0.91940958     0.93500
Al150      Al  0.58812167  0.15875020  0.89301986     1.55560
O151        O  0.65447770  0.24253534  0.91571224    -0.78230
C152        C  0.63713762  0.11089637  0.87601506     0.97670
C153        C  0.59577048  0.15164449  0.96316545     0.92550
O154        O  0.59857449  0.18275734  0.96226577    -0.83550
O155        O  0.81403054  0.19734667  0.00091258    -0.83010
C156        C  0.88335152  0.20132082  0.11022922     0.96340
O157        O  0.85265516  0.20347949  0.10409676    -0.72130
O158        O  0.80228384  0.21735347  0.06377959    -0.75720
Al159      Al  0.82951327  0.17954426  0.07162466     1.48980
C160        C  0.80844859  0.24585578  0.05321987     0.91600
O161        O  0.89781162  0.23914955  0.01387546    -0.81940
O162        O  0.90188168  0.15077611  0.00117064    -0.75500
Al163      Al  0.85540624  0.21709159  0.01065638     1.90120
O164        O  0.92637253  0.19941279  0.03802338    -0.74570
O165        O  0.88031247  0.12356026  0.05448008    -0.74420
O166        O  0.90214582  0.18045922  0.09456824    -0.80080
O167        O  0.84337749  0.13773643  0.08999675    -0.78280
O168        O  0.86210737  0.18758538  0.04279390    -1.14420
O169        O  0.80665193  0.15678592  0.03822517    -0.73610
C170        C  0.80069431  0.17022966  0.01024783     0.97110
C171        C  0.92500145  0.22651445  0.02329910     0.93500
Al172      Al  0.89957446  0.16521765  0.04731597     1.55560
O173        O  0.83549932  0.25084471  0.03843623    -0.78230
C174        C  0.85860042  0.11542976  0.07457753     0.97670
C175        C  0.89043857  0.16503596  0.97542858     0.92550
O176        O  0.87225807  0.19011574  0.97791126    -0.83550
O177        O  0.71420387  0.46373409  0.15139562    -0.83010
C178        C  0.71375427  0.34849459  0.09112489     0.96340
O179        O  0.71631341  0.35672205  0.12152963    -0.72130
O180        O  0.73285499  0.40088141  0.16745320    -0.75720
Al181      Al  0.69423977  0.39227768  0.14318141     1.48980
C182        C  0.76120299  0.40985424  0.15956227     0.91600
O183        O  0.75094343  0.44323382  0.06676828    -0.81940
O184        O  0.66058414  0.45494413  0.06979277    -0.75500
Al185      Al  0.73089699  0.45030497  0.11008339     1.90120
O186        O  0.70928745  0.41886996  0.04263367    -0.74570
O187        O  0.63632509  0.40283144  0.09311979    -0.74420
O188        O  0.69335057  0.36342374  0.07146146    -0.80080
O189        O  0.65184085  0.37350364  0.13434896    -0.78280
O190        O  0.70114432  0.41768884  0.10785138    -1.14420
O191        O  0.67346808  0.42896255  0.16396060    -0.73610
C192        C  0.68770041  0.45704606  0.16667722     0.97110
C193        C  0.73677702  0.43225651  0.04107960     0.93500
Al194      Al  0.67704525  0.41012048  0.07216526     1.55560
O195        O  0.76575215  0.42396170  0.13167946    -0.78230
C196        C  0.62891602  0.38594933  0.11770135     0.97670
C197        C  0.67364628  0.48186825  0.07903705     0.92550
O198        O  0.70186822  0.48239499  0.09207693    -0.83550
O199        O  0.70712682  0.51537562  0.29675541    -0.83010
C200        C  0.71300142  0.61970604  0.37978948     0.96340
O201        O  0.70951987  0.62134119  0.34852626    -0.72130
O202        O  0.73562577  0.59069373  0.29679056    -0.75720
Al203      Al  0.69344499  0.59034225  0.31745881     1.48980
C204        C  0.76112141  0.57291125  0.29675988     0.91600
O205        O  0.75221090  0.52760355  0.37932990    -0.81940
O206        O  0.65634269  0.51474697  0.37472718    -0.75500
Al207      Al  0.72836024  0.52394690  0.33776072     1.90120
O208        O  0.70804683  0.53457958  0.40966658    -0.74570
O209        O  0.63666852  0.57666111  0.37208966    -0.74420
O210        O  0.69849456  0.59777796  0.39751058    -0.80080
O211        O  0.64787632  0.59962792  0.32533486    -0.78280
O212        O  0.69967772  0.55705615  0.34642316    -1.14420
O213        O  0.67834416  0.56132091  0.28535552    -0.73610
C214        C  0.68641271  0.53159179  0.27943544     0.97110
C215        C  0.73739753  0.52569863  0.40703854     0.93500
Al216      Al  0.67704998  0.55666213  0.38476605     1.55560
O217        O  0.76277642  0.54838560  0.31601575    -0.78230
C218        C  0.62710829  0.59130028  0.34668677     0.97670
C219        C  0.67229209  0.48897400  0.36574814     0.92550
O220        O  0.70158370  0.49113033  0.35571597    -0.83550
O221        O  0.96519356  0.66585827  0.19897874    -0.83010
C222        C  0.85566599  0.60227632  0.18979035     0.96340
O223        O  0.86047641  0.63347373  0.18555586    -0.72130
O224        O  0.90027476  0.68104409  0.20877404    -0.75720
Al225      Al  0.89803580  0.65606747  0.16892073     1.48980
C226        C  0.90561355  0.67321789  0.23840726     0.91600
O227        O  0.93851995  0.58309462  0.23598117    -0.81940
O228        O  0.96591886  0.58889189  0.14338992    -0.75500
Al229      Al  0.94961333  0.62467940  0.21517779     1.90120
O230        O  0.93421965  0.55564504  0.18994188    -0.74570
O231        O  0.90889355  0.59917555  0.11644872    -0.74420
O232        O  0.87467705  0.58018851  0.17592904    -0.80080
O233        O  0.88669540  0.64684632  0.12412487    -0.78280
O234        O  0.92267622  0.62145108  0.18075322    -1.14420
O235        O  0.93675223  0.67683574  0.15305643    -0.73610
C236        C  0.96337025  0.67793176  0.16976991     0.97110
C237        C  0.93848456  0.55612268  0.22026992     0.93500
Al238      Al  0.92044502  0.58439975  0.15836210     1.55560
O239        O  0.91824739  0.64521283  0.24442642    -0.78230
C240        C  0.89524839  0.62415246  0.10498991     0.97670
C241        C  0.99037403  0.59646693  0.16186382     0.92550
O242        O  0.98559500  0.60544445  0.19165517    -0.83550
O243        O  0.03801359  0.78607371  0.18796295    -0.83010
C244        C  0.13904379  0.87030911  0.19612841     0.96340
O245        O  0.13258440  0.84004967  0.19947912    -0.72130
O246        O  0.09676391  0.79017413  0.21565620    -0.75720
Al247      Al  0.10468977  0.81419032  0.17502788     1.48980
C248        C  0.08097770  0.79651308  0.24208927     0.91600
O249        O  0.02493564  0.87710405  0.21939085    -0.81940
O250        O  0.02838938  0.88581818  0.14813970    -0.75500
Al251      Al  0.03616114  0.83170671  0.20292198     1.90120
O252        O  0.06810678  0.90399746  0.20232689    -0.74570
O253        O  0.08316209  0.86645470  0.11934279    -0.74420
O254        O  0.12267154  0.88821825  0.17549427    -0.80080
O255        O  0.12104125  0.83071918  0.13308584    -0.78280
O256        O  0.07196855  0.84324925  0.18020952    -1.14420
O257        O  0.07802894  0.78569867  0.15044941    -0.73610
C258        C  0.05301746  0.77278328  0.16346034     0.97110
C259        C  0.04024213  0.90436124  0.21532137     0.93500
Al260      Al  0.07552407  0.88320396  0.16241015     1.55560
O261        O  0.06040066  0.82055913  0.24278698    -0.78230
C262        C  0.10482040  0.84581478  0.11084707     0.97670
C263        C  0.00530232  0.86433103  0.14960223     0.92550
O264        O  0.00888339  0.83884200  0.16709270    -0.83550
O265        O  0.28461784  0.95321437  0.30703753    -0.83010
C266        C  0.28766091  0.83296993  0.36834605     0.96340
O267        O  0.30076733  0.83482705  0.33991857    -0.72130
O268        O  0.25088272  0.86548139  0.31140560    -0.75720
Al269      Al  0.29680270  0.87360050  0.31249095     1.48980
C270        C  0.22973102  0.88770658  0.30517014     0.91600
O271        O  0.24502385  0.92271965  0.38713883    -0.81940
O272        O  0.34235896  0.93750189  0.37280979    -0.75500
Al273      Al  0.26608399  0.93612656  0.34596045     1.90120
O274        O  0.29289950  0.91583738  0.41184275    -0.74570
O275        O  0.35602423  0.87293724  0.35928001    -0.74420
O276        O  0.29516573  0.85453762  0.39018519    -0.80080
O277        O  0.34295440  0.87998608  0.30786043    -0.78280
O278        O  0.29402208  0.90184491  0.34612970    -1.14420
O279        O  0.29300649  0.90612557  0.28012263    -0.73610
C280        C  0.29126716  0.93722113  0.28107408     0.97110
C281        C  0.26252349  0.92125314  0.41328914     0.93500
Al282      Al  0.31982258  0.89528640  0.38097870     1.55560
O283        O  0.23185041  0.91551104  0.31963423    -0.78230
C284        C  0.36489238  0.87721910  0.32963857     0.97670
C285        C  0.32638983  0.96500092  0.37034718     0.92550
O286        O  0.29516001  0.96525923  0.36890321    -0.83550
O287        O  0.26800320  0.00417979  0.13953955    -0.83010
C288        C  0.28297420  0.12186354  0.08656329     0.96340
O289        O  0.29021662  0.11713503  0.11708416    -0.72130
O290        O  0.25549903  0.07862826  0.15626581    -0.75720
Al291      Al  0.29803555  0.07594487  0.13999179     1.48980
C292        C  0.22782859  0.06641514  0.15151911     0.91600
O293        O  0.24014194  0.04303035  0.05694213    -0.81940
O294        O  0.33365732  0.01482079  0.07523470    -0.75500
Al295      Al  0.25616791  0.02534512  0.09993559     1.90120
O296        O  0.28976198  0.04298565  0.03634929    -0.74570
O297        O  0.35519602  0.07748120  0.08603876    -0.74420
O298        O  0.29443347  0.10280002  0.06363019    -0.80080
O299        O  0.34433820  0.07716158  0.13782643    -0.78280
O300        O  0.28968734  0.05354260  0.10351797    -1.14420
O301        O  0.30442956  0.03686514  0.16393957    -0.73610
C302        C  0.28815920  0.01018263  0.16256567     0.97110
C303        C  0.25955010  0.04333424  0.03202643     0.93500
Al304      Al  0.31567934  0.05944191  0.06903077     1.55560
O305        O  0.22266334  0.05093370  0.12454297    -0.78230
C306        C  0.36506544  0.07871761  0.11511102     0.97670
C307        C  0.31477403  0.98933161  0.07691334     0.92550
O308        O  0.28349970  0.99270647  0.07835587    -0.83550
O309        O  0.31617895  0.27361024  0.95243980    -0.83010
C310        C  0.39802115  0.25646526  0.84771890     0.96340
O311        O  0.36995396  0.26976231  0.84299772    -0.72130
O312        O  0.32607933  0.23182663  0.87208328    -0.75720
Al313      Al  0.33620091  0.27763834  0.87505576     1.48980
C314        C  0.31858619  0.21146028  0.89461520     0.90160
O315        O  0.39632421  0.22399028  0.94035045    -0.81940
O316        O  0.38924954  0.32389969  0.94469101    -0.75500
Al317      Al  0.35522498  0.24993972  0.94486307     1.90120
O318        O  0.42524481  0.26949550  0.93799118    -0.74570
O319        O  0.39104840  0.33085749  0.87792689    -0.74420
O320        O  0.41590600  0.26542031  0.87219236    -0.80080
O321        O  0.33838696  0.32448094  0.87319767    -0.78280
O322        O  0.36390529  0.27428094  0.90921367    -1.14420
O323        O  0.29974884  0.28509956  0.90122648    -0.73610
C324        C  0.29533923  0.28478917  0.93196036     0.97110
C325        C  0.42399925  0.23882409  0.94141951     0.93500
Al326      Al  0.40218054  0.29565972  0.90771991     1.55560
O327        O  0.33016417  0.21528589  0.92344589    -0.78230
C328        C  0.36300599  0.34300061  0.87276654     0.97670
C329        C  0.38183827  0.31089607  0.97273760     0.92550
O330        O  0.37480218  0.28032443  0.97505612    -0.83550
O331        O  0.16396591  0.26068616  0.00695634    -0.83010
C332        C  0.11078043  0.27099193  0.12318820     0.96340
O333        O  0.14020321  0.28251926  0.12048905    -0.72130
O334        O  0.17916992  0.24500887  0.08349667    -0.75720
Al335      Al  0.16480283  0.28909045  0.07927387     1.48980
C336        C  0.17347069  0.21733136  0.07053059     0.91600
O337        O  0.08288507  0.23259842  0.04312979    -0.81940
O338        O  0.10130026  0.32839277  0.02075105    -0.75500
Al339      Al  0.12520246  0.24899219  0.02687052     1.90120
O340        O  0.06195288  0.28232526  0.04356682    -0.74570
O341        O  0.11105175  0.34357670  0.08754955    -0.74420
O342        O  0.08766075  0.28161012  0.10413745    -0.80080
O343        O  0.16221453  0.33676303  0.07683177    -0.78280
O344        O  0.12868637  0.28120651  0.05642605    -1.14420
O345        O  0.19058067  0.29386738  0.04104347    -0.73610
C346        C  0.18760089  0.27949013  0.01340252     0.97110
C347        C  0.05802595  0.25185543  0.04318032     0.93500
Al348      Al  0.09394852  0.30675027  0.06370330     1.55560
O349        O  0.14824606  0.21421762  0.05210862    -0.78230
C350        C  0.13866493  0.35598317  0.08284457     0.97670
C351        C  0.10284332  0.31098678  0.99386927     0.92550
O352        O  0.10503910  0.27923217  0.99484267    -0.83550
O353        O  0.96771690  0.31445452  0.25363381    -0.83010
C354        C  0.85038094  0.36402098  0.26411309     0.96340
O355        O  0.85885149  0.33340531  0.26486998    -0.72130
O356        O  0.90401955  0.29123207  0.24058685    -0.75720
Al357      Al  0.89805435  0.31315044  0.28104622     1.48980
C358        C  0.91158560  0.29959809  0.21188558     0.91600
O359        O  0.93012226  0.39517735  0.22052722    -0.81940
O360        O  0.95725731  0.38453352  0.31325498    -0.75500
Al361      Al  0.94697700  0.35354492  0.23883750     1.90120
O362        O  0.92085548  0.41740199  0.26881249    -0.74570
O363        O  0.90316295  0.36526631  0.33860196    -0.74420
O364        O  0.86572011  0.38595060  0.28171857    -0.80080
O365        O  0.88475801  0.31750275  0.32562223    -0.78280
O366        O  0.91902491  0.35077673  0.27273926    -1.14420
O367        O  0.93799656  0.29355002  0.29563517    -0.73610
C368        C  0.96382288  0.29408314  0.27754260     0.97110
C369        C  0.92500693  0.42042226  0.23856530     0.93500
Al370      Al  0.91182949  0.38523115  0.29837286     1.55560
O371        O  0.92053971  0.32927043  0.20677555    -0.78230
C372        C  0.89206433  0.33818108  0.34717827     0.97670
C373        C  0.98248444  0.38054807  0.29471153     0.92550
O374        O  0.97946400  0.37605727  0.26383301    -0.83550
O375        O  0.02919134  0.15603876  0.25130293    -0.83010
C376        C  0.13379489  0.07974597  0.26162962     0.96340
O377        O  0.13424326  0.11019430  0.27062930    -0.72130
O378        O  0.10236704  0.15689587  0.23699245    -0.75720
Al379      Al  0.09837565  0.14010595  0.28036312     1.48980
C380        C  0.09005480  0.15324529  0.20868545     0.91600
O381        O  0.04301568  0.06715034  0.22026608    -0.81940
O382        O  0.02842478  0.08272281  0.31524560    -0.75500
Al383      Al  0.03960828  0.11249605  0.23868238     1.90120
O384        O  0.04849513  0.04344641  0.26789288    -0.74570
O385        O  0.09182009  0.08413060  0.33570033    -0.74420
O386        O  0.11154620  0.05981729  0.27229632    -0.80080
O387        O  0.10004064  0.13595084  0.32747617    -0.78280
O388        O  0.06941752  0.10833988  0.27126956    -1.14420
O389        O  0.06533190  0.17147507  0.28923708    -0.73610
C390        C  0.03973947  0.17661277  0.27227614     0.97110
C391        C  0.03963890  0.04165632  0.23856284     0.93500
Al392      Al  0.07063197  0.07146043  0.29526065     1.55560
O393        O  0.06959789  0.12976976  0.20427339    -0.78230
C394        C  0.09739305  0.11225554  0.34719495     0.97670
C395        C  0.00290165  0.09119087  0.29829508     0.92550
O396        O  0.00518737  0.09897950  0.26775713    -0.83550
O397        O  0.77604660  0.51753133  0.66024550    -0.83010
C398        C  0.78950467  0.62889790  0.59227607     0.96340
O399        O  0.78444829  0.62033497  0.62192283    -0.72130
O400        O  0.75939994  0.57996788  0.66546217    -0.75720
Al401      Al  0.80215106  0.58497404  0.64490917     1.48980
C402        C  0.73154076  0.57046899  0.65511159     0.91600
O403        O  0.75203261  0.52377954  0.56691869    -0.81940
O404        O  0.82626574  0.51461419  0.56778233    -0.75500
Al405      Al  0.76502394  0.52576328  0.61476662     1.90120
O406        O  0.78024637  0.56498141  0.54843167    -0.74570
O407        O  0.85833560  0.56221227  0.59502758    -0.74420
O408        O  0.80986053  0.61230262  0.57418211    -0.80080
O409        O  0.84756089  0.59712279  0.63448911    -0.78280
O410        O  0.79464138  0.55795860  0.61097897    -1.14420
O411        O  0.81930883  0.54990639  0.66881068    -0.73610
C412        C  0.80301552  0.52409462  0.67491819     0.97110
C413        C  0.76402204  0.53985452  0.54245099     0.93500
Al414      Al  0.81721269  0.56330245  0.57428374     1.55560
O415        O  0.72933359  0.55572568  0.62717624    -0.78230
C416        C  0.86812603  0.58006621  0.61810609     0.97670
C417        C  0.81735302  0.48974225  0.58538814     0.92550
O418        O  0.79537274  0.49350474  0.60675136    -0.83550
O419        O  0.77999216  0.45079225  0.79311037    -0.83010
C420        C  0.77167246  0.34386905  0.86709206     0.96340
O421        O  0.77407629  0.34682433  0.83582969    -0.72130
O422        O  0.75731038  0.38449103  0.78436628    -0.75720
Al423      Al  0.79605534  0.37863483  0.81056342     1.48980
C424        C  0.72950846  0.39779001  0.78834159     0.91600
O425        O  0.73524681  0.43755656  0.87695318    -0.81940
O426        O  0.82936490  0.44995804  0.87478751    -0.75500
Al427      Al  0.75895125  0.44168576  0.83466063     1.90120
O428        O  0.77863633  0.42389169  0.90579930    -0.74570
O429        O  0.85047985  0.39138039  0.86490517    -0.74420
O430        O  0.78834994  0.36233218  0.88721533    -0.80080
O431        O  0.83899576  0.36213714  0.82262312    -0.78280
O432        O  0.78815801  0.40908289  0.84187654    -1.14420
O433        O  0.81730817  0.41022934  0.78522373    -0.73610
C434        C  0.80520512  0.43840621  0.77838836     0.97110
C435        C  0.74966755  0.43355187  0.90460598     0.93500
Al436      Al  0.80976868  0.40639358  0.87981227     1.55560
O437        O  0.72497724  0.41533815  0.81385073    -0.78230
C438        C  0.86019964  0.37387457  0.84180008     0.97670
C439        C  0.81461178  0.47616837  0.86496689     0.92550
O440        O  0.78616497  0.47455790  0.85249523    -0.83550
O441        O  0.51578559  0.65464458  0.76568691    -0.83010
C442        C  0.63400504  0.60267165  0.75792136     0.96340
O443        O  0.62259532  0.63209036  0.75844631    -0.72130
O444        O  0.57485963  0.67661047  0.74748856    -0.75720
Al445      Al  0.58724035  0.64849770  0.78338851     1.48980
C446        C  0.56755372  0.66930299  0.71832072     0.91600
O447        O  0.54251559  0.57524701  0.71928029    -0.81940
O448        O  0.52969939  0.56478706  0.80755898    -0.75500
Al449      Al  0.53257514  0.61544915  0.74361917     1.90120
O450        O  0.57054172  0.54788135  0.75709241    -0.74570
O451        O  0.57874476  0.59294066  0.83628847    -0.74420
O452        O  0.62185074  0.58016763  0.77745897    -0.80080
O453        O  0.60815494  0.63491357  0.82339929    -0.78280
O454        O  0.56455515  0.61209892  0.77315127    -1.14420
O455        O  0.55070236  0.66459127  0.80739049    -0.73610
C456        C  0.52268549  0.66828130  0.79350824     0.97110
C457        C  0.55569978  0.54878551  0.73010379     0.93500
Al458      Al  0.57502305  0.57450806  0.79317284     1.55560
O459        O  0.55807490  0.64021790  0.71186435    -0.78230
C460        C  0.59523152  0.61723110  0.84526798     0.97670
C461        C  0.50270206  0.57351556  0.79385821     0.92550
O462        O  0.50298888  0.59239558  0.76906887    -0.83550
O463        O  0.45534635  0.78953003  0.77097235    -0.83010
C464        C  0.35183813  0.86961388  0.76534520     0.96340
O465        O  0.35592539  0.83846225  0.76514445    -0.72130
O466        O  0.39142407  0.78522018  0.75060805    -0.75720
Al467      Al  0.38707959  0.81403309  0.78887559     1.48980
C468        C  0.40337912  0.78966953  0.72202441     0.91600
O469        O  0.45133937  0.87332956  0.72496921    -0.81940
O470        O  0.46315545  0.88594961  0.80623400    -0.75500
Al471      Al  0.44985768  0.83180835  0.74938897     1.90120
O472        O  0.42141163  0.90572775  0.75694377    -0.74570
O473        O  0.41221296  0.86824135  0.83888803    -0.74420
O474        O  0.36851578  0.88804011  0.78509277    -0.80080
O475        O  0.37343887  0.83274015  0.83147038    -0.78280
O476        O  0.41809566  0.84357712  0.77766140    -1.14420
O477        O  0.41819594  0.78861541  0.81189696    -0.73610
C478        C  0.44427900  0.77793757  0.79826089     0.97110
C479        C  0.43872405  0.90130070  0.73186418     0.93500
Al480      Al  0.41615344  0.88373165  0.79550979     1.55560
O481        O  0.42077517  0.81487658  0.71652364    -0.78230
C482        C  0.39163361  0.84891883  0.85091634     0.97670
C483        C  0.48736446  0.86787761  0.79726957     0.92550
O484        O  0.48327267  0.84550165  0.77629102    -0.83550
O485        O  0.68061065  0.77344666  0.51453462    -0.83010
C486        C  0.60680182  0.76772870  0.62182580     0.96340
O487        O  0.63744222  0.76570547  0.61631971    -0.72130
O488        O  0.68831746  0.75185834  0.57839813    -0.75720
Al489      Al  0.66111017  0.78962784  0.58512769     1.48980
C490        C  0.68438027  0.72358513  0.56621015     0.91600
O491        O  0.59596911  0.72916168  0.52411846    -0.81940
O492        O  0.59127928  0.81771061  0.51223048    -0.75500
Al493      Al  0.63871004  0.75257085  0.52191095     1.90120
O494        O  0.56674966  0.76774914  0.54907043    -0.74570
O495        O  0.61034752  0.84466486  0.56521459    -0.74420
O496        O  0.58818289  0.78818877  0.60551945    -0.80080
O497        O  0.64547014  0.83127087  0.60268434    -0.78280
O498        O  0.63019314  0.78121665  0.55470489    -1.14420
O499        O  0.68562607  0.81268469  0.55367742    -0.73610
C500        C  0.69510014  0.79852999  0.52727482     0.97110
C501        C  0.56858655  0.74025456  0.53525102     0.93500
Al502      Al  0.59214878  0.80285969  0.55815739     1.55560
O503        O  0.65914558  0.71819655  0.54864138    -0.78230
C504        C  0.63046935  0.85331044  0.58654020     0.97670
C505        C  0.60536394  0.80563925  0.48680709     0.92550
O506        O  0.62287965  0.78006409  0.48903872    -0.83550
O507        O  0.82422694  0.75992221  0.45527955    -0.83010
C508        C  0.87618510  0.77260788  0.33770304     0.96340
O509        O  0.84689172  0.76681652  0.34716543    -0.72130
O510        O  0.80581495  0.74354698  0.39268584    -0.75720
Al511      Al  0.82634962  0.78456115  0.38441290     1.48980
C512        C  0.81584644  0.71512920  0.40038151     0.91600
O513        O  0.90897328  0.72909081  0.42367970    -0.81940
O514        O  0.90066291  0.81868528  0.44625624    -0.75500
Al515      Al  0.86573188  0.74580465  0.43703212     1.90120
O516        O  0.92876011  0.77541920  0.40397589    -0.74570
O517        O  0.87186754  0.84481732  0.39741126    -0.74420
O518        O  0.89510244  0.79345963  0.35265611    -0.80080
O519        O  0.83156900  0.82867896  0.36750495    -0.78280
O520        O  0.86341164  0.77847943  0.40735435    -1.14420
O521        O  0.80667842  0.80140799  0.42273660    -0.73610
C522        C  0.80617016  0.78556160  0.45014512     0.97110
C523        C  0.93287888  0.74619550  0.41283292     0.93500
Al524      Al  0.89637136  0.80589114  0.40015494     1.55560
O525        O  0.84540702  0.71170609  0.40980973    -0.78230
C526        C  0.84737443  0.85174241  0.38046640     0.97670
C527        C  0.89561012  0.80150881  0.47216477     0.92550
O528        O  0.88453518  0.77247700  0.46999544    -0.83550
O529        O  0.11197730  0.76587347  0.97086427    -0.83010
C530        C  0.10089703  0.76273277  0.84053988     0.96340
O531        O  0.08322290  0.78184477  0.85953231    -0.72130
O532        O  0.06351756  0.76789177  0.91997193    -0.75720
Al533      Al  0.09231334  0.79888591  0.90528490     1.48980
C534        C  0.06340634  0.73705719  0.92223962     0.91600
O535        O  0.15309926  0.70760777  0.90918646    -0.81940
O536        O  0.18500740  0.79800940  0.90979030    -0.75500
Al537      Al  0.13140890  0.74106321  0.93584447     1.90120
O538        O  0.18351437  0.74056753  0.88041813    -0.74570
O539        O  0.14962428  0.82398637  0.86018842    -0.74420
O540        O  0.13215589  0.76062820  0.84349401    -0.80080
O541        O  0.11201101  0.83926199  0.89390229    -0.78280
O542        O  0.12750416  0.77319953  0.90588007    -1.14420
O543        O  0.09939771  0.81455401  0.95013543    -0.73610
C544        C  0.10594169  0.79629270  0.97505552     0.97110
C545        C  0.17884484  0.71248849  0.89254403     0.93500
Al546      Al  0.15896500  0.78009419  0.87619988     1.55560
O547        O  0.08991696  0.72044896  0.92473108    -0.78230
C548        C  0.13457723  0.84688493  0.87470012     0.97670
C549        C  0.18979078  0.78352497  0.93749788     0.92550
O550        O  0.17223807  0.75972706  0.94875583    -0.83550
O551        O  0.38628994  0.78291300  0.98760454    -0.83010
C552        C  0.39265908  0.77071851  0.11762564     0.96340
O553        O  0.41299342  0.77999155  0.09528150    -0.72130
O554        O  0.43197314  0.78347910  0.03231542    -0.75720
Al555      Al  0.40069884  0.80600653  0.05685573     1.48980
C556        C  0.43730856  0.75313244  0.02967226     0.91600
O557        O  0.34755383  0.71300041  0.04026517    -0.81940
O558        O  0.30090772  0.77976701  0.04635721    -0.75500
Al559      Al  0.36900143  0.75000065  0.01799835     1.90120
O560        O  0.32948894  0.73495228  0.08669378    -0.74570
O561        O  0.32937356  0.82863344  0.07578974    -0.74420
O562        O  0.36284983  0.78125886  0.11726912    -0.80080
O563        O  0.38076972  0.83967906  0.08327660    -0.78280
O564        O  0.36703967  0.77858038  0.05130843    -1.14420
O565        O  0.38864929  0.82987502  0.01684927    -0.73610
C566        C  0.38666334  0.81459965  0.98904462     0.97110
C567        C  0.33004058  0.71128048  0.06633736     0.93500
Al568      Al  0.33350075  0.78112057  0.07951821     1.55560
O569        O  0.41314909  0.73309114  0.03000239    -0.78230
C570        C  0.35159553  0.84959125  0.08088066     0.97670
C571        C  0.30238032  0.77277348  0.01591370     0.92550
O572        O  0.32855506  0.76314756  0.00228352    -0.83550
O573        O  0.29698224  0.48333352  0.84833892    -0.83010
C574        C  0.28509529  0.61756527  0.86870206     0.96340
O575        O  0.30381143  0.59983294  0.88783514    -0.72130
O576        O  0.28275382  0.54272264  0.90898372    -0.75720
Al577      Al  0.31788107  0.55176671  0.88293946     1.48980
C578        C  0.25686876  0.52653925  0.90654602     0.91600
O579        O  0.23326859  0.54558822  0.81892314    -0.81940
O580        O  0.32668174  0.54818815  0.78818102    -0.75500
Al581      Al  0.26808974  0.51668629  0.83542552     1.90120
O582        O  0.26600818  0.57452982  0.78766467    -0.74570
O583        O  0.34718112  0.59502232  0.82810378    -0.74420
O584        O  0.28312319  0.61098539  0.83816383    -0.80080
O585        O  0.35966112  0.55783459  0.86388097    -0.78280
O586        O  0.29649629  0.54904079  0.84461221    -1.14420
O587        O  0.33207380  0.50525752  0.88304955    -0.73610
C588        C  0.32186846  0.48045739  0.86661979     0.97110
C589        C  0.23766034  0.56353783  0.79349789     0.93500
Al590      Al  0.30492296  0.57957074  0.81364502     1.55560
O591        O  0.24663504  0.51603784  0.87877386    -0.78230
C592        C  0.36858216  0.57675991  0.84131235     0.97670
C593        C  0.31274069  0.52226530  0.77815688     0.92550
O594        O  0.28675962  0.51058507  0.79168751    -0.83550
O595        O  0.28741735  0.47330782  0.59853985    -0.83010
C596        C  0.27541877  0.34111364  0.59295559     0.96340
O597        O  0.29584303  0.35536120  0.57264721    -0.72130
O598        O  0.27681413  0.41093988  0.54625714    -0.75720
Al599      Al  0.31180189  0.40275300  0.57285869     1.48980
C600        C  0.24929409  0.42457038  0.54789867     0.91600
O601        O  0.22953305  0.41272996  0.63886045    -0.81940
O602        O  0.32454614  0.41484780  0.66463090    -0.75500
Al603      Al  0.26176930  0.44044473  0.61724680     1.90120
O604        O  0.26388493  0.39068721  0.67366634    -0.74570
O605        O  0.34224595  0.36134464  0.62951263    -0.74420
O606        O  0.27601379  0.34781516  0.62378928    -0.80080
O607        O  0.35412259  0.39624162  0.59134903    -0.78280
O608        O  0.29120363  0.40844723  0.61090840    -1.14420
O609        O  0.32602903  0.44936108  0.56866215    -0.73610
C610        C  0.31195558  0.47551007  0.57980847     0.97110
C611        C  0.23525471  0.40115363  0.66744394     0.93500
Al612      Al  0.30082171  0.38082527  0.64456316     1.55560
O613        O  0.23780515  0.43500488  0.57534588    -0.78230
C614        C  0.36377305  0.37683055  0.61336043     0.97670
C615        C  0.31123570  0.44282710  0.67063125     0.92550
O616        O  0.28357573  0.45190732  0.65791094    -0.83550
O617        O  0.99156733  0.10010578  0.77593235    -0.83010
C618        C  0.85604347  0.10293242  0.75708742     0.96340
O619        O  0.86937741  0.08167819  0.77678743    -0.72130
O620        O  0.91731944  0.05006826  0.75058216    -0.75720
Al621      Al  0.91626530  0.07522545  0.78883098     1.48980
C622        C  0.94342127  0.04305683  0.73575124     0.91600
O623        O  0.93914219  0.12827667  0.70369499    -0.81940
O624        O  0.94206894  0.16790884  0.79557066    -0.75500
Al625      Al  0.96405390  0.11255452  0.74181482     1.90120
O626        O  0.91706414  0.16911728  0.73270106    -0.74570
O627        O  0.88753055  0.13954069  0.81704095    -0.74420
O628        O  0.86909336  0.13096229  0.75240468    -0.80080
O629        O  0.91384172  0.09481247  0.83107375    -0.78280
O630        O  0.92854588  0.11174742  0.76809030    -1.14420
O631        O  0.96152293  0.06373454  0.80326872    -0.73610
C632        C  0.98855858  0.07921886  0.79875715     0.97110
C633        C  0.92667572  0.15743464  0.70526292     0.93500
Al634      Al  0.90558996  0.14890149  0.77401834     1.55560
O635        O  0.96287335  0.06613841  0.72752744    -0.78230
C636        C  0.89863961  0.12054248  0.83926880     0.97670
C637        C  0.96994433  0.17078275  0.78163133     0.92550
O638        O  0.97582053  0.15689598  0.75397876    -0.83550
O639        O  0.00629196  0.33871665  0.78597821    -0.83010
C640        C  0.13560083  0.37384542  0.76732507     0.96340
O641        O  0.11818161  0.39033601  0.78858590    -0.72130
O642        O  0.06343940  0.40770835  0.76266843    -0.75720
Al643      Al  0.07043580  0.38332046  0.80030893     1.48980
C644        C  0.04034089  0.40559644  0.74245948     0.91600
O645        O  0.06535801  0.32053254  0.71717988    -0.81940
O646        O  0.07568089  0.28694907  0.81066370    -0.75500
Al647      Al  0.03754383  0.33220056  0.75409503     1.90120
O648        O  0.09921177  0.29039648  0.74723350    -0.74570
O649        O  0.11748097  0.33218701  0.83194572    -0.74420
O650        O  0.13255266  0.34287140  0.76484225    -0.80080
O651        O  0.07635719  0.36481467  0.84306353    -0.78280
O652        O  0.07037983  0.34418086  0.78042116    -1.14420
O653        O  0.02219547  0.38335970  0.81171918    -0.73610
C654        C  0.99967937  0.36239612  0.80456902     0.97110
C655        C  0.08524741  0.29613446  0.71965349     0.93500
Al656      Al  0.10374634  0.31572374  0.78808105     1.55560
O657        O  0.02830118  0.37726908  0.73527623    -0.78230
C658        C  0.09903144  0.34618608  0.85321952     0.97670
C659        C  0.05048780  0.27509495  0.79690709     0.92550
O660        O  0.03801689  0.28742331  0.77057066    -0.83550
O661        O  0.10251485  0.18332668  0.48465993    -0.83010
C662        C  0.10321091  0.19349250  0.61712373     0.96340
O663        O  0.08146037  0.18644630  0.59522970    -0.72130
O664        O  0.05923950  0.18484013  0.53246905    -0.75720
Al665      Al  0.09049721  0.16049379  0.55517602     1.48980
C666        C  0.05534901  0.21536849  0.52946500     0.91600
O667        O  0.14771634  0.25054093  0.53598914    -0.81940
O668        O  0.19083753  0.18247496  0.54007168    -0.75500
Al669      Al  0.12321399  0.21494594  0.51447688     1.90120
O670        O  0.16599415  0.22797761  0.58219207    -0.74570
O671        O  0.16138984  0.13430262  0.56904955    -0.74420
O672        O  0.13242469  0.18173827  0.61406519    -0.80080
O673        O  0.11034508  0.12573109  0.58028766    -0.78280
O674        O  0.12503724  0.18636183  0.54795113    -1.14420
O675        O  0.09934330  0.13641361  0.51384237    -0.73610
C676        C  0.10076415  0.15167780  0.48582410     0.97110
C677        C  0.16581989  0.25168630  0.56169166     0.93500
Al678      Al  0.15971796  0.18184981  0.57449001     1.55560
O679        O  0.08046614  0.23422766  0.52843022    -0.78230
C680        C  0.13846917  0.11417928  0.57473025     0.97670
C681        C  0.18849889  0.18842221  0.50949762     0.92550
O682        O  0.16232554  0.19926205  0.49674243    -0.83550
O683        O  0.37713528  0.18982941  0.46150395    -0.83010
C684        C  0.38748224  0.19004309  0.33209760     0.96340
O685        O  0.40772371  0.17360705  0.35078274    -0.72130
O686        O  0.42813137  0.19006332  0.40990186    -0.75720
Al687      Al  0.40097659  0.15702245  0.39658426     1.48980
C688        C  0.42639625  0.22059742  0.41350110     0.91600
O689        O  0.33667049  0.24397218  0.39600403    -0.81940
O690        O  0.30593924  0.15274118  0.40466391    -0.75500
Al691      Al  0.35801492  0.21314164  0.42567359     1.90120
O692        O  0.30571057  0.20893890  0.37087996    -0.74570
O693        O  0.34183697  0.12400630  0.35789858    -0.74420
O694        O  0.35631782  0.18664731  0.33449950    -0.80080
O695        O  0.38580612  0.11466920  0.38560959    -0.78280
O696        O  0.36340417  0.17957819  0.39745951    -1.14420
O697        O  0.39605338  0.14236363  0.44209323    -0.73610
C698        C  0.38756182  0.16059667  0.46646890     0.97110
C699        C  0.31020071  0.23796340  0.38102336     0.93500
Al700      Al  0.33119949  0.16897146  0.36938391     1.55560
O701        O  0.39891127  0.23537085  0.41527396    -0.78230
C702        C  0.36247619  0.10377636  0.36917656     0.97670
C703        C  0.30021114  0.16983436  0.43051574     0.92550
O704        O  0.31727397  0.19478397  0.43936766    -0.83550
O705        O  0.79015951  0.97814700  0.09798698    -0.83010
C706        C  0.78346590  0.84391078  0.09379826     0.96340
O707        O  0.80269639  0.85926386  0.07337701    -0.72130
O708        O  0.77997940  0.91316730  0.04724069    -0.75720
Al709      Al  0.81575768  0.90723646  0.07324950     1.48980
C710        C  0.75238222  0.92672302  0.04893158     0.91600
O711        O  0.73246685  0.91732748  0.13933216    -0.81940
O712        O  0.82650200  0.92027142  0.16625841    -0.75500
Al713      Al  0.76478894  0.94500098  0.11736689     1.90120
O714        O  0.76706603  0.89301475  0.17259636    -0.74570
O715        O  0.84708382  0.86873388  0.13069571    -0.74420
O716        O  0.78289847  0.85182371  0.12418537    -0.80080
O717        O  0.85825464  0.90314280  0.09169739    -0.78280
O718        O  0.79483636  0.91308248  0.11134227    -1.14420
O719        O  0.82840290  0.95353205  0.06811101    -0.73610
C720        C  0.81480947  0.97973807  0.07922934     0.97110
C721        C  0.73825730  0.90284145  0.16654622     0.93500
Al722      Al  0.80501111  0.88583351  0.14504202     1.55560
O723        O  0.74129520  0.93856811  0.07586413    -0.78230
C724        C  0.86806487  0.88421584  0.11397255     0.97670
C725        C  0.81216823  0.94758928  0.17256825     0.92550
O726        O  0.78562385  0.95719714  0.15823913    -0.83550
O727        O  0.78331154  0.99437144  0.36190295    -0.83010
C728        C  0.78306347  0.12489250  0.36621832     0.96340
O729        O  0.80536456  0.10945458  0.38330083    -0.72130
O730        O  0.78457403  0.05628660  0.41095293    -0.75720
Al731      Al  0.81692297  0.06160195  0.38107421     1.48980
C732        C  0.75509746  0.04829323  0.41272098     0.91600
O733        O  0.72652778  0.05733423  0.32248202    -0.81940
O734        O  0.81851872  0.05032821  0.28988315    -0.75500
Al735      Al  0.75911752  0.02881018  0.34337262     1.90120
O736        O  0.76032843  0.07886780  0.28702663    -0.74570
O737        O  0.84219607  0.10273600  0.32369180    -0.74420
O738        O  0.77861559  0.11921812  0.33560687    -0.80080
O739        O  0.85687211  0.06487547  0.35776060    -0.78280
O740        O  0.79136074  0.05821899  0.34607476    -1.14420
O741        O  0.82833868  0.01511907  0.38309582    -0.73610
C742        C  0.81099474  0.99036892  0.37515782     0.97110
C743        C  0.73163236  0.07039424  0.29451427     0.93500
Al744      Al  0.79923085  0.08550937  0.31222818     1.55560
O745        O  0.73935631  0.03914728  0.38696265    -0.78230
C746        C  0.86488602  0.08641556  0.33725692     0.97670
C747        C  0.80363485  0.02297067  0.28521949     0.92550
O748        O  0.77748568  0.01437933  0.30116202    -0.83550
O749        O  0.50960982  0.88246109  0.26453928    -0.83010
C750        C  0.63993519  0.87064360  0.26821669     0.96340
O751        O  0.62375401  0.89279080  0.28531473    -0.72130
O752        O  0.56846388  0.92388434  0.26985634    -0.75720
Al753      Al  0.57628447  0.89262412  0.30040054     1.48980
C754        C  0.56272519  0.92726106  0.23988648     0.91600
O755        O  0.56982470  0.83569457  0.20840483    -0.81940
O756        O  0.55283569  0.80202834  0.29928418    -0.75500
Al757      Al  0.54260479  0.86007517  0.24047366     1.90120
O758        O  0.58632490  0.79826706  0.24321060    -0.74570
O759        O  0.60678365  0.82663237  0.32820148    -0.74420
O760        O  0.63020512  0.84070303  0.26698277    -0.80080
O761        O  0.58278881  0.87214113  0.34116089    -0.78280
O762        O  0.57035167  0.85820865  0.27467552    -1.14420
O763        O  0.52971422  0.89317410  0.31390722    -0.73610
C764        C  0.50498806  0.88903599  0.29478823     0.97110
C765        C  0.57963061  0.80627288  0.21398699     0.93500
Al766      Al  0.59212414  0.82099690  0.28364893     1.55560
O767        O  0.55796606  0.90201432  0.22179521    -0.78230
C768        C  0.59728329  0.84654103  0.34985709     0.97670
C769        C  0.52728219  0.80144506  0.28096675     0.92550
O770        O  0.52287896  0.82067907  0.25608381    -0.83550
O771        O  0.48861832  0.60541428  0.27923389    -0.83010
C772        C  0.35942492  0.58734810  0.26225944     0.96340
O773        O  0.37977946  0.56841194  0.27789192    -0.72130
O774        O  0.44199069  0.55080215  0.27580672    -0.75720
Al775      Al  0.42037970  0.57981834  0.30176146     1.48980
C776        C  0.45442456  0.54885560  0.24797009     0.91600
O777        O  0.43294115  0.63697234  0.20972042    -0.81940
O778        O  0.42591896  0.67970213  0.29359039    -0.75500
Al779      Al  0.45757907  0.61920024  0.24751510     1.90120
O780        O  0.39621623  0.66476332  0.23748870    -0.74570
O781        O  0.38438931  0.64473486  0.32697504    -0.74420
O782        O  0.35997330  0.61884119  0.26567444    -0.80080
O783        O  0.39868974  0.59518879  0.33951162    -0.78280
O784        O  0.42399607  0.61596136  0.27652169    -1.14420
O785        O  0.46204810  0.58937749  0.32451241    -0.73610
C786        C  0.48877715  0.59702649  0.30946084     0.97110
C787        C  0.41225794  0.66073321  0.21124608     0.93500
Al788      Al  0.39392263  0.64833853  0.28070663     1.55560
O789        O  0.45542343  0.57439076  0.22955697    -0.78230
C790        C  0.38829475  0.62266630  0.34847438     0.97670
C791        C  0.45343770  0.68368526  0.27930374     0.92550
O792        O  0.46643519  0.66185717  0.26113004    -0.83550
O793        O  0.19580952  0.49294797  0.09466417    -0.83010
C794        C  0.21857374  0.62428511  0.09707029     0.96340
O795        O  0.19730715  0.61196338  0.07650630    -0.72130
O796        O  0.20563010  0.55546132  0.04708637    -0.75720
Al797      Al  0.17537464  0.56718762  0.07683735     1.48980
C798        C  0.23191160  0.54006122  0.04369371     0.91600
O799        O  0.26238131  0.54608225  0.13430345    -0.81940
O800        O  0.16985277  0.54897151  0.16814964    -0.75500
Al801      Al  0.22598079  0.52238700  0.11340175     1.90120
O802        O  0.23197724  0.56882605  0.17241620    -0.74570
O803        O  0.15301513  0.60602656  0.13937318    -0.74420
O804        O  0.21845649  0.61561580  0.12741662    -0.80080
O805        O  0.13584869  0.57837295  0.09800241    -0.78280
O806        O  0.19850971  0.55706929  0.11217191    -1.14420
O807        O  0.15509954  0.52315120  0.07400167    -0.73610
C808        C  0.16783322  0.49503695  0.08140997     0.97110
C809        C  0.25944104  0.55746144  0.16347833     0.93500
Al810      Al  0.19377590  0.58265297  0.14805036     1.55560
O811        O  0.24674916  0.52890054  0.06925936    -0.78230
C812        C  0.12935346  0.59555669  0.12261190     0.97670
C813        C  0.18194821  0.52009512  0.17200100     0.92550
O814        O  0.20690250  0.50936881  0.15542202    -0.83550
O815        O  0.19097038  0.46721334  0.35449777    -0.83010
C816        C  0.20224426  0.33142383  0.36148902     0.96340
O817        O  0.18261487  0.34728891  0.38096579    -0.72130
O818        O  0.20244872  0.39995601  0.40815606    -0.75720
Al819      Al  0.16894027  0.39455690  0.38019066     1.48980
C820        C  0.22807804  0.41638125  0.41033551     0.91600
O821        O  0.25702550  0.40737217  0.32241090    -0.81940
O822        O  0.16602823  0.40901770  0.28526914    -0.75500
Al823      Al  0.22109276  0.43467919  0.33990566     1.90120
O824        O  0.22627495  0.38135101  0.28675046    -0.74570
O825        O  0.14122191  0.35885358  0.31843996    -0.74420
O826        O  0.20514687  0.33928502  0.33132178    -0.80080
O827        O  0.12834292  0.38988260  0.35966043    -0.78280
O828        O  0.19202822  0.40147339  0.34347686    -1.14420
O829        O  0.15469982  0.44047931  0.38495435    -0.73610
C830        C  0.16548879  0.46716274  0.37229539     0.97110
C831        C  0.25424750  0.39146582  0.29542011     0.93500
Al832      Al  0.18525321  0.37441543  0.30885917     1.55560
O833        O  0.23989117  0.43075681  0.38490760    -0.78230
C834        C  0.11945104  0.37273726  0.33584314     0.97670
C835        C  0.18077140  0.43589857  0.27942000     0.92550
O836        O  0.20565998  0.44548715  0.29613230    -0.83550
O837        O  0.86154594  0.27372497  0.48865998    -0.83010
C838        C  0.88917696  0.26334813  0.61728226     0.96340
O839        O  0.90603080  0.28432712  0.59998795    -0.72130
O840        O  0.92246830  0.26389754  0.54185581    -0.75720
Al841      Al  0.89730831  0.29912989  0.55355050     1.48980
C842        C  0.91896022  0.23587543  0.52959676     0.91600
O843        O  0.83168117  0.21518627  0.55451748    -0.81940
O844        O  0.80356108  0.31000563  0.55780247    -0.75500
Al845      Al  0.84836275  0.24800616  0.52416416     1.90120
O846        O  0.80262763  0.24938392  0.58362103    -0.74570
O847        O  0.84842264  0.32880323  0.60277006    -0.74420
O848        O  0.85789594  0.26317642  0.61619153    -0.80080
O849        O  0.87941552  0.34144026  0.56189901    -0.78280
O850        O  0.85930480  0.27782195  0.55451338    -1.14420
O851        O  0.89307578  0.31313377  0.50784994    -0.73610
C852        C  0.87766871  0.29967847  0.48407816     0.97110
C853        C  0.80588387  0.22102172  0.57103823     0.93500
Al854      Al  0.83104177  0.28706416  0.58747869     1.55560
O855        O  0.89056786  0.22418643  0.52362008    -0.78230
C856        C  0.86053415  0.35069269  0.58432360     0.97670
C857        C  0.79259138  0.29575717  0.53205303     0.92550
O858        O  0.80580352  0.26954817  0.51954598    -0.83550
O859        O  0.60861243  0.27575776  0.46616234    -0.83010
C860        C  0.61849559  0.26878931  0.33173767     0.96340
O861        O  0.59619638  0.28605223  0.34648323    -0.72130
O862        O  0.56343956  0.26866753  0.39828292    -0.75720
Al863      Al  0.59298537  0.30117592  0.39248939     1.48980
C864        C  0.56132228  0.24083651  0.41109488     0.91600
O865        O  0.64942588  0.21174837  0.40935262    -0.81940
O866        O  0.68556009  0.30238322  0.42103741    -0.75500
Al867      Al  0.62801093  0.24642679  0.43515765     1.90120
O868        O  0.68704348  0.24432310  0.38933498    -0.74570
O869        O  0.66000085  0.32958395  0.36702759    -0.74420
O870        O  0.64802050  0.26741820  0.34244229    -0.80080
O871        O  0.61199048  0.34191237  0.38562842    -0.78280
O872        O  0.62871917  0.27753928  0.40312373    -1.14420
O873        O  0.58709083  0.31708841  0.43698947    -0.73610
C874        C  0.59530410  0.30413452  0.46447090     0.97110
C875        C  0.67822616  0.21586309  0.39793800     0.93500
Al876      Al  0.66640833  0.28529898  0.38164565     1.55560
O877        O  0.58588010  0.22706983  0.42457407    -0.78230
C878        C  0.63836499  0.35080930  0.37330332     0.97670
C879        C  0.68637146  0.28630871  0.44825660     0.92550
O880        O  0.66882197  0.26078398  0.45266334    -0.83550
O881        O  0.50607878  0.11618616  0.17498189    -0.83010
C882        C  0.63891675  0.09633044  0.18730185     0.96340
O883        O  0.62233649  0.07622741  0.16884853    -0.72130
O884        O  0.56939052  0.05698361  0.19634369    -0.75720
Al885      Al  0.57412700  0.07831431  0.15736494     1.48980
C886        C  0.55120624  0.06124972  0.22084770     0.91600
O887        O  0.56893427  0.14734244  0.23483517    -0.81940
O888        O  0.56902823  0.17152006  0.13804245    -0.75500
Al889      Al  0.53918849  0.13024744  0.20222676     1.90120
O890        O  0.59475159  0.17919740  0.19983893    -0.74570
O891        O  0.61636738  0.12853387  0.12277386    -0.74420
O892        O  0.63197976  0.12695627  0.18753249    -0.80080
O893        O  0.57800287  0.09341587  0.11293784    -0.78280
O894        O  0.57089769  0.11856943  0.17442621    -1.14420
O895        O  0.52656543  0.07420333  0.14711296    -0.73610
C896        C  0.50199872  0.09206947  0.15607445     0.97110
C897        C  0.58559904  0.17307002  0.22913089     0.93500
Al898      Al  0.60071444  0.14886372  0.16285822     1.55560
O899        O  0.53772305  0.08896532  0.22700932    -0.78230
C900        C  0.59926546  0.11295217  0.10213704     0.97670
C901        C  0.54277748  0.18189312  0.15150976     0.92550
O902        O  0.53310602  0.17204536  0.18004596    -0.83550
O903        O  0.48986673  0.35452744  0.17974137    -0.83010
C904        C  0.35551488  0.36581696  0.19471154     0.96340
O905        O  0.37104306  0.38593490  0.17538476    -0.72130
O906        O  0.42371336  0.41237806  0.19714392    -0.75720
Al907      Al  0.41835399  0.38557769  0.16126025     1.48980
C908        C  0.44779307  0.41377950  0.21603760     0.91600
O909        O  0.43151611  0.32713487  0.24646788    -0.81940
O910        O  0.43329529  0.29109381  0.15332666    -0.75500
Al911      Al  0.45903727  0.34226529  0.21038362     1.90120
O912        O  0.40698919  0.29010843  0.21547719    -0.74570
O913        O  0.38141932  0.32594114  0.13138783    -0.74420
O914        O  0.36421117  0.33559103  0.19657025    -0.80080
O915        O  0.41289489  0.36702712  0.11927439    -0.78280
O916        O  0.42543065  0.34780287  0.18234548    -1.14420
O917        O  0.46497839  0.39027563  0.14698524    -0.73610
C918        C  0.49114049  0.37547928  0.15686263     0.97110
C919        C  0.41724956  0.29930322  0.24352175     0.93500
Al920      Al  0.39856934  0.31368351  0.17476333     1.55560
O921        O  0.46052901  0.38737851  0.22763282    -0.78230
C922        C  0.39375840  0.34496845  0.10999105     0.97670
C923        C  0.46066997  0.28524873  0.16749411     0.92550
O924        O  0.46766126  0.29787440  0.19547709    -0.83550
O925        O  0.88850949  0.68865058  0.96698211    -0.83010
C926        C  0.88506427  0.69189500  0.83486728     0.96340
O927        O  0.90679198  0.68349981  0.85618408    -0.72130
O928        O  0.93015887  0.69145551  0.91629387    -0.75720
Al929      Al  0.90066027  0.66200248  0.89806996     1.48980
C930        C  0.92985758  0.72210566  0.92091715     0.91600
O931        O  0.83769901  0.75022818  0.91603011    -0.81940
O932        O  0.80077167  0.67236584  0.91744746    -0.75500
Al933      Al  0.86431918  0.71665583  0.93704745     1.90120
O934        O  0.81464197  0.72322950  0.87549327    -0.74570
O935        O  0.83177496  0.63236320  0.87963684    -0.74420
O936        O  0.85444541  0.68560298  0.83970288    -0.80080
O937        O  0.88408702  0.62332434  0.87790048    -0.78280
O938        O  0.86412182  0.68624386  0.90472710    -1.14420
O939        O  0.89515756  0.64079179  0.94051411    -0.73610
C940        C  0.89230826  0.65732585  0.96729501     0.97110
C941        C  0.81699371  0.74885781  0.89284785     0.93500
Al942      Al  0.82877927  0.67894150  0.87992290     1.55560
O943        O  0.90317527  0.73839612  0.92146914    -0.78230
C944        C  0.85541057  0.61277610  0.87599907     0.97670
C945        C  0.80415172  0.68149795  0.94732043     0.92550
O946        O  0.82785366  0.69894376  0.95633650    -0.83550
O947        O  0.63100186  0.68588137  0.98448402    -0.83010
C948        C  0.60356720  0.70166182  0.11759041     0.96340
O949        O  0.58513063  0.68331681  0.09924381    -0.72130
O950        O  0.56813361  0.70786261  0.04340329    -0.75720
Al951      Al  0.59096684  0.67008339  0.05166852     1.48980
C952        C  0.57224692  0.73141115  0.02386432     0.91600
O953        O  0.65733772  0.75027992  0.04504866    -0.81940
O954        O  0.68568077  0.65509029  0.05331662    -0.75500
Al955      Al  0.64237945  0.71526316  0.01697099     1.90120
O956        O  0.68678545  0.71808824  0.07722008    -0.74570
O957        O  0.64160482  0.63728228  0.09773899    -0.74420
O958        O  0.63419441  0.70347459  0.11240264    -0.80080
O959        O  0.60751259  0.62727074  0.05810439    -0.78280
O960        O  0.63037310  0.68862772  0.05009016    -1.14420
O961        O  0.59068513  0.65652433  0.00471766    -0.73610
C962        C  0.60987459  0.66390820  0.98078382     0.97110
C963        C  0.68194522  0.74602193  0.06375330     0.93500
Al964      Al  0.65927647  0.67932720  0.08254217     1.55560
O965        O  0.60031384  0.73820335  0.01192020    -0.78230
C966        C  0.62701362  0.61677027  0.07948625     0.97670
C967        C  0.69757886  0.66862029  0.02783443     0.92550
O968        O  0.68520933  0.69481637  0.01478434    -0.83550
O969        O  0.70022312  0.97094922  0.86623598    -0.83010
C970        C  0.70908652  0.83926738  0.86049579     0.96340
O971        O  0.68926447  0.85334288  0.88141335    -0.72130
O972        O  0.70537780  0.90723354  0.91156728    -0.75720
Al973      Al  0.67284698  0.90001232  0.88264438     1.48980
C974        C  0.73380686  0.91826940  0.91304265     0.91600
O975        O  0.76003923  0.91283257  0.82218709    -0.81940
O976        O  0.66734948  0.92069162  0.79127185    -0.75500
Al977      Al  0.72674261  0.93939247  0.84502530     1.90120
O978        O  0.72697876  0.89377509  0.78483623    -0.74570
O979        O  0.64625169  0.86530726  0.82015026    -0.74420
O980        O  0.70979196  0.84828100  0.83020015    -0.80080
O981        O  0.63209846  0.89387425  0.86250296    -0.78280
O982        O  0.69608165  0.90813596  0.84652204    -1.14420
O983        O  0.65718691  0.94539105  0.88732889    -0.73610
C984        C  0.67249128  0.97190633  0.88037096     0.97110
C985        C  0.75552525  0.90209363  0.79310429     0.93500
Al986      Al  0.68826141  0.88405846  0.81034306     1.55560
O987        O  0.74830300  0.92847291  0.88708766    -0.78230
C988        C  0.62407225  0.87679156  0.83842503     0.97670
C989        C  0.68138682  0.94871468  0.78852208     0.92550
O990        O  0.70771523  0.95609409  0.80438538    -0.83550
O991        O  0.69575160  0.99419281  0.60789464    -0.83010
C992        C  0.69866831  0.12881308  0.59176323     0.96340
O993        O  0.68048351  0.11080957  0.57272239    -0.72130
O994        O  0.70442588  0.05670919  0.54862801    -0.75720
Al995      Al  0.66957352  0.06241857  0.57594154     1.48980
C996        C  0.73059535  0.04052361  0.54945511     0.91600
O997        O  0.75546904  0.05837456  0.63609046    -0.81940
O998        O  0.66335675  0.05503885  0.67086334    -0.75500
Al999      Al  0.72237840  0.02829880  0.62058892     1.90120
O1000       O  0.72300592  0.08403791  0.67072764    -0.74570
O1001       O  0.63852999  0.10267747  0.63330381    -0.74420
O1002       O  0.70193237  0.12218985  0.62219524    -0.80080
O1003       O  0.62800599  0.06613991  0.59595721    -0.78280
O1004       O  0.69181066  0.05947282  0.61359362    -1.14420
O1005       O  0.65902866  0.01486328  0.57365638    -0.73610
C1006       C  0.67242177  0.99010906  0.58821810     0.97110
C1007       C  0.75150113  0.07410867  0.66285491     0.93500
Al1008     Al  0.68251793  0.08854076  0.64610666     1.55560
O1009       O  0.74232948  0.02948812  0.57648043    -0.78230
C1010       C  0.61794460  0.08579811  0.61747283     0.97670
C1011       C  0.67879622  0.02881763  0.67854143     0.92550
O1012       O  0.70552556  0.01967192  0.66437471    -0.83550
O1013       O  0.98957524  0.84723239  0.67009162    -0.83010
C1014       C  0.85640529  0.86899077  0.69483902     0.96340
O1015       O  0.87099903  0.88736900  0.67335955    -0.72130
O1016       O  0.92341271  0.90622273  0.70237330    -0.75720
Al1017     Al  0.91879737  0.88584768  0.66188085     1.48980
C1018       C  0.94844453  0.90482589  0.72031320     0.91600
O1019       O  0.93388165  0.81686939  0.73953502    -0.81940
O1020       O  0.92367039  0.78959121  0.64491104    -0.75500
Al1021     Al  0.95949498  0.83428068  0.70261721     1.90120
O1022       O  0.90156373  0.78773629  0.70756364    -0.74570
O1023       O  0.87730823  0.83312004  0.62897517    -0.74420
O1024       O  0.86305938  0.83837411  0.69634221    -0.80080
O1025       O  0.91421102  0.87020419  0.61758517    -0.78280
O1026       O  0.92435383  0.84529228  0.67837264    -1.14420
O1027       O  0.96572984  0.89223079  0.65022510    -0.73610
C1028       C  0.99111459  0.87369751  0.65376931     0.97110
C1029       C  0.91458678  0.79240158  0.73541020     0.93500
Al1030     Al  0.89367698  0.81492846  0.67003483     1.55560
O1031       O  0.96425046  0.87771117  0.72423671    -0.78230
C1032       C  0.89431509  0.84859375  0.60786716     0.97670
C1033       C  0.95038278  0.77890616  0.65716800     0.92550
O1034       O  0.96307295  0.79128332  0.68313239    -0.83550
O1035       O  0.00354741  0.60325104  0.67513930    -0.83010
C1036       C  0.13834392  0.59166070  0.69266927     0.96340
O1037       O  0.12337220  0.57238417  0.67242121    -0.72130
O1038       O  0.07203418  0.54587938  0.69739568    -0.75720
Al1039     Al  0.07612798  0.57183560  0.65994106     1.48980
C1040       C  0.04746024  0.54313228  0.71583867     0.91600
O1041       O  0.05940379  0.63157672  0.74558600    -0.81940
O1042       O  0.06095565  0.66688322  0.65183920    -0.75500
Al1043     Al  0.03333634  0.61514722  0.70783044     1.90120
O1044       O  0.08581916  0.66680833  0.71432466    -0.74570
O1045       O  0.11242885  0.63163166  0.63083748    -0.74420
O1046       O  0.12900756  0.62153096  0.69615205    -0.80080
O1047       O  0.08055694  0.59151868  0.61710777    -0.78280
O1048       O  0.06806127  0.60967507  0.68089127    -1.14420
O1049       O  0.03030350  0.56517989  0.64635532    -0.73610
C1050       C  0.00422816  0.58174354  0.65271060     0.97110
C1051       C  0.07394064  0.65951085  0.74237905     0.93500
Al1052     Al  0.09499794  0.64371111  0.67389308     1.55560
O1053       O  0.03184045  0.56907620  0.72508176    -0.78230
C1054       C  0.09906839  0.61472547  0.60842162     0.97670
C1055       C  0.03347224  0.67320609  0.66545149     0.92550
O1056       O  0.02519563  0.65955718  0.69271996    -0.83550
C1057       C  0.96594930  0.74944898  0.64393848    -0.07340
C1058       C  0.99814643  0.75265070  0.63178447    -0.18470
C1059       C  0.02044699  0.72627003  0.63434415     0.09860
C1060       C  0.01027013  0.69703846  0.65074403    -0.07260
C1061       C  0.97668735  0.69251103  0.65814887    -0.18500
C1062       C  0.95422872  0.71850420  0.65456967     0.09890
S1063       S  0.06210838  0.73317233  0.62048736    -0.33460
S1064       S  0.91222924  0.71369606  0.66901537    -0.33470
H1065       H  0.91401277  0.67927847  0.67511941     0.27900
H1066       H  0.06333068  0.70360792  0.60185844     0.27890
H1067       H  0.00679674  0.77670390  0.62340321     0.18490
H1068       H  0.96859094  0.66942406  0.66928797     0.18490
C1069       C  0.78290800  0.89867099  0.76820367    -0.07340
C1070       C  0.81270955  0.88400589  0.77797724    -0.18470
C1071       C  0.83739176  0.87599167  0.75474766     0.09860
C1072       C  0.83276290  0.88253710  0.72026989    -0.07260
C1073       C  0.80358996  0.89879969  0.71060869    -0.18500
C1074       C  0.77886536  0.90699305  0.73403750     0.09890
S1075       S  0.87415951  0.85700293  0.77129660    -0.33460
S1076       S  0.74275856  0.92837932  0.71874065    -0.33470
H1077       H  0.74028775  0.94955990  0.74634175     0.27900
H1078       H  0.89525718  0.87037093  0.74731378     0.27890
H1079       H  0.81640081  0.87762147  0.80387036     0.18490
H1080       H  0.79954837  0.90427393  0.68457887     0.18490
C1081       C  0.66930108  0.97165927  0.76341603    -0.07340
C1082       C  0.65866175  0.95801660  0.73333312    -0.18470
C1083       C  0.65797472  0.97742650  0.70489285     0.09860
C1084       C  0.66782440  0.01071392  0.70707983    -0.07260
C1085       C  0.67362443  0.02548987  0.73769912    -0.18500
C1086       C  0.67432039  0.00620154  0.76608884     0.09890
S1087       S  0.64665921  0.95801911  0.66645339    -0.33460
S1088       S  0.68308284  0.02667479  0.80451132    -0.33470
H1089       H  0.66140375  0.00556822  0.82123406     0.27900
H1090       H  0.63586899  0.98755344  0.65102521     0.27890
H1091       H  0.65392970  0.93161495  0.73120910     0.18490
H1092       H  0.68025142  0.05153166  0.73913891     0.18490
C1093       C  0.79272262  0.77601298  0.88687706    -0.07340
C1094       C  0.76801240  0.78228807  0.91079541    -0.18470
C1095       C  0.73939964  0.80112286  0.90310920     0.09860
C1096       C  0.73532919  0.81457339  0.87074172    -0.07260
C1097       C  0.76060686  0.80811825  0.84729359    -0.18500
C1098       C  0.78884382  0.78967851  0.85507670     0.09890
S1099       S  0.70855896  0.80522254  0.93507493    -0.33460
S1100       S  0.81960695  0.78508033  0.82324916    -0.33470
H1101       H  0.84660724  0.78000278  0.84462197     0.27900
H1102       H  0.68186441  0.79993386  0.91345345     0.27890
H1103       H  0.77008827  0.77082349  0.93508776     0.18490
H1104       H  0.75921951  0.81837667  0.82245229     0.18490
C1105       C  0.89453506  0.71306239  0.80557948    -0.07340
C1106       C  0.86901347  0.72805275  0.78714292    -0.18470
C1107       C  0.87496212  0.75429642  0.76495745     0.09860
C1108       C  0.90721717  0.76732126  0.76163280    -0.07260
C1109       C  0.93319977  0.75110423  0.77829816    -0.18500
C1110       C  0.92740512  0.72329021  0.79886614     0.09890
S1111       S  0.84056078  0.77151501  0.74173392    -0.33460
S1112       S  0.96306826  0.70038908  0.81329228    -0.33470
H1113       H  0.94795695  0.66909274  0.81081581     0.27900
H1114       H  0.81734131  0.74704595  0.75014496     0.27890
H1115       H  0.84385515  0.72001364  0.79092646     0.18490
H1116       H  0.95837387  0.75879415  0.77361682     0.18490
C1117       C  0.78059920  0.67188641  0.97293760    -0.07340
C1118       C  0.75961441  0.64483248  0.96717485    -0.18470
C1119       C  0.73416134  0.63788052  0.98935939     0.09860
C1120       C  0.72986989  0.65870688  0.01690436    -0.07260
C1121       C  0.75389821  0.68147946  0.02563694    -0.18500
C1122       C  0.77866516  0.68928556  0.00360938     0.09890
S1123       S  0.70689909  0.60373615  0.98078165    -0.33460
S1124       S  0.80228024  0.72564122  0.01432763    -0.33470
H1125       H  0.83189233  0.70804571  0.01934719     0.27900
H1126       H  0.69337996  0.60241531  0.01289463     0.27890
H1127       H  0.76214308  0.63003792  0.94485384     0.18490
H1128       H  0.75031899  0.69708129  0.04734301     0.18490
C1129       C  0.48398332  0.26203426  0.15244142    -0.07340
C1130       C  0.47139447  0.23394786  0.13637962    -0.18470
C1131       C  0.49217905  0.20722936  0.12926723     0.09860
C1132       C  0.52582935  0.20975232  0.13706880    -0.07260
C1133       C  0.53923409  0.24000515  0.14626563    -0.18500
C1134       C  0.51856528  0.26558903  0.15605897     0.09890
S1135       S  0.47425541  0.16924295  0.11431565    -0.33460
S1136       S  0.53818958  0.29929124  0.17713905    -0.33470
H1137       H  0.52949326  0.28685014  0.20860350     0.27900
H1138       H  0.50437124  0.15399694  0.10543077     0.27890
H1139       H  0.44505385  0.23133796  0.13257803     0.18490
H1140       H  0.56535961  0.24155171  0.15205325     0.18490
C1141       C  0.59311930  0.19710251  0.25595762    -0.07340
C1142       C  0.58070755  0.22983555  0.25362237    -0.18470
C1143       C  0.58792399  0.25386869  0.27792362     0.09860
C1144       C  0.60961691  0.24579400  0.30418717    -0.07260
C1145       C  0.62261357  0.21325795  0.30577790    -0.18500
C1146       C  0.61385106  0.18877693  0.28279275     0.09890
S1147       S  0.57036048  0.29475964  0.27332394    -0.33460
S1148       S  0.63106279  0.14773456  0.28815730    -0.33470
H1149       H  0.60072259  0.13136900  0.28496853     0.27900
H1150       H  0.55190816  0.29244985  0.30283335     0.27890
H1151       H  0.56487803  0.23656035  0.23297180     0.18490
H1152       H  0.63919336  0.20655268  0.32576559     0.18490
C1153       C  0.76089691  0.30579941  0.51905162    -0.07340
C1154       C  0.73506050  0.28502118  0.52799021    -0.18470
C1155       C  0.70909254  0.27974935  0.50641940     0.09860
C1156       C  0.70904229  0.29602246  0.47502515    -0.07260
C1157       C  0.73245706  0.32100139  0.46882514    -0.18500
C1158       C  0.75824466  0.32641426  0.49106246     0.09890
S1159       S  0.67890697  0.24989656  0.52002977    -0.33460
S1160       S  0.78822942  0.35800853  0.48157827    -0.33470
H1161       H  0.80209074  0.35936303  0.51353621     0.27900
H1162       H  0.69408907  0.22397880  0.50201518     0.27890
H1163       H  0.73704267  0.26983710  0.55022078     0.18490
H1164       H  0.73175290  0.33515431  0.44593506     0.18490
C1165       C  0.71983648  0.15650056  0.57960003    -0.07340
C1166       C  0.74434480  0.14945159  0.55586314    -0.18470
C1167       C  0.77321250  0.16883540  0.55319539     0.09860
C1168       C  0.77764945  0.19690881  0.57403668    -0.07260
C1169       C  0.75186181  0.20496694  0.59623628    -0.18500
C1170       C  0.72347386  0.18527197  0.59929187     0.09890
S1171       S  0.80362736  0.15590959  0.52326309    -0.33460
S1172       S  0.69205931  0.19653443  0.62929081    -0.33470
H1173       H  0.70839238  0.22404020  0.64295660     0.27900
H1174       H  0.82891100  0.15324418  0.54707066     0.27890
H1175       H  0.74215998  0.12720009  0.54107668     0.18490
H1176       H  0.75402623  0.22677369  0.61172993     0.18490
C1177       C  0.32754593  0.37605475  0.21745696    -0.07340
C1178       C  0.30604028  0.35063946  0.22783748    -0.18470
C1179       C  0.28457871  0.35437626  0.25488699     0.09860
C1180       C  0.28243548  0.38496116  0.27202536    -0.07260
C1181       C  0.30335946  0.41087924  0.26166608    -0.18500
C1182       C  0.32576915  0.40678371  0.23482297     0.09890
S1183       S  0.26170728  0.31815097  0.26755311    -0.33460
S1184       S  0.35204291  0.44126372  0.22485993    -0.33470
H1185       H  0.34490650  0.44016902  0.19072567     0.27900
H1186       H  0.26378707  0.32508921  0.30171460     0.27890
H1187       H  0.30708654  0.32660208  0.21576695     0.18490
H1188       H  0.30159500  0.43479180  0.27389188     0.18490
C1189       C  0.16999287  0.45615610  0.25184999    -0.07340
C1190       C  0.16723926  0.49029978  0.25729377    -0.18470
C1191       C  0.16548393  0.51226043  0.23078329     0.09860
C1192       C  0.16924827  0.49938981  0.19843150    -0.07260
C1193       C  0.16855771  0.46507425  0.19290341    -0.18500
C1194       C  0.16825469  0.44314069  0.21948929     0.09890
S1195       S  0.16404826  0.55638610  0.23936371    -0.33460
S1196       S  0.17159589  0.39939341  0.21054470    -0.33470
H1197       H  0.14408425  0.39108867  0.23016435     0.27900
H1198       H  0.15653725  0.55381966  0.27339293     0.27890
H1199       H  0.16930609  0.49989418  0.28227497     0.18490
H1200       H  0.17097075  0.45537078  0.16791910     0.18490
C1201       C  0.46518414  0.51508898  0.23863522    -0.07340
C1202       C  0.46302538  0.50564140  0.20569140    -0.18470
C1203       C  0.46146924  0.47213322  0.19749584     0.09860
C1204       C  0.46042895  0.44735596  0.22292184    -0.07260
C1205       C  0.46733001  0.45652329  0.25533894    -0.18500
C1206       C  0.47067301  0.49002680  0.26341647     0.09890
S1207       S  0.46103409  0.46327031  0.15393775    -0.33460
S1208       S  0.47992652  0.49862527  0.30634225    -0.33470
H1209       H  0.49634022  0.52825215  0.29936707     0.27900
H1210       H  0.49230305  0.44793350  0.15561566     0.27890
H1211       H  0.46042412  0.52433375  0.18643107     0.18490
H1212       H  0.46823680  0.43781276  0.27472173     0.18490
C1213       C  0.33629856  0.57351443  0.23666687    -0.07340
C1214       C  0.30650125  0.55884048  0.24607982    -0.18470
C1215       C  0.28258507  0.55031430  0.22217981     0.09860
C1216       C  0.28720239  0.55836652  0.18803810    -0.07260
C1217       C  0.31766774  0.57120378  0.17848967    -0.18500
C1218       C  0.34224713  0.57786280  0.20208290     0.09890
S1219       S  0.24734878  0.52768969  0.23667269    -0.33460
S1220       S  0.38129215  0.59042880  0.18596025    -0.33470
H1221       H  0.39848321  0.57126003  0.20933098     0.27900
H1222       H  0.24536599  0.50770672  0.20817614     0.27890
H1223       H  0.30171089  0.55413596  0.27212695     0.18490
H1224       H  0.32220469  0.57668770  0.15252864     0.18490
C1225       C  0.55971455  0.96241266  0.23011520    -0.07340
C1226       C  0.58151756  0.98379063  0.24703986    -0.18470
C1227       C  0.57322159  0.01675087  0.25376150     0.09860
C1228       C  0.54512929  0.03079873  0.23910262    -0.07260
C1229       C  0.52235870  0.00960185  0.22353105    -0.18500
C1230       C  0.52935182  0.97565921  0.21890364     0.09890
S1231       S  0.60087896  0.04132354  0.27855652    -0.33460
S1232       S  0.49835334  0.95041251  0.19952288    -0.33470
H1233       H  0.52111143  0.93130726  0.18118497     0.27900
H1234       H  0.57923901  0.06862220  0.28206276     0.27890
H1235       H  0.60399833  0.97381023  0.25790564     0.18490
H1236       H  0.50070917  0.02025103  0.21166616     0.18490
C1237       C  0.50555663  0.77357040  0.28303400    -0.07340
C1238       C  0.50229579  0.75668570  0.25316475    -0.18470
C1239       C  0.48502510  0.72765940  0.25140805     0.09860
C1240       C  0.47021666  0.71513404  0.28065263    -0.07260
C1241       C  0.47275857  0.73232672  0.31080004    -0.18500
C1242       C  0.49078723  0.76173249  0.31232193     0.09890
S1243       S  0.48269370  0.70764819  0.21119179    -0.33460
S1244       S  0.49393896  0.78293304  0.35151582    -0.33470
H1245       H  0.49820419  0.81467492  0.33766309     0.27900
H1246       H  0.50396944  0.72862856  0.19331791     0.27890
H1247       H  0.51446068  0.76586658  0.23104329     0.18490
H1248       H  0.46139449  0.72248577  0.33308786     0.18490
C1249       C  0.58324863  0.77941333  0.18816945    -0.07340
C1250       C  0.60647381  0.75403227  0.19480031    -0.18470
C1251       C  0.60995697  0.72605674  0.17446626     0.09860
C1252       C  0.59096761  0.72304995  0.14521915    -0.07260
C1253       C  0.56655808  0.74740547  0.13905187    -0.18500
C1254       C  0.56207162  0.77506033  0.16045518     0.09890
S1255       S  0.63989747  0.69501315  0.18696202    -0.33460
S1256       S  0.52853850  0.80324097  0.15154187    -0.33470
H1257       H  0.51810094  0.80595619  0.18470025     0.27900
H1258       H  0.62468392  0.66835103  0.17052748     0.27890
H1259       H  0.62219948  0.75575898  0.21646353     0.18490
H1260       H  0.55158168  0.74539539  0.11692968     0.18490
C1261       C  0.74283816  0.04778125  0.44722431    -0.07340
C1262       C  0.73011568  0.01823380  0.46012428    -0.18470
C1263       C  0.72990947  0.01245847  0.49464056     0.09860
C1264       C  0.74510206  0.03538765  0.51659061    -0.07260
C1265       C  0.75954076  0.06369411  0.50325564    -0.18500
C1266       C  0.75627683  0.07118623  0.46972549     0.09890
S1267       S  0.70852450  0.97666092  0.51055278    -0.33460
S1268       S  0.76892125  0.11185294  0.45683417    -0.33470
H1269       H  0.73763187  0.11850041  0.44334099     0.27900
H1270       H  0.69619728  0.96528174  0.48001839     0.27890
H1271       H  0.72114581  0.99947178  0.44320734     0.18490
H1272       H  0.76974297  0.08218430  0.51974106     0.18490
C1273       C  0.66560623  0.08608839  0.21134773    -0.07340
C1274       C  0.68415361  0.11209693  0.22548238    -0.18470
C1275       C  0.70288855  0.10784454  0.25421639     0.09860
C1276       C  0.70536916  0.07635839  0.26932563    -0.07260
C1277       C  0.68837403  0.04958313  0.25468849    -0.18500
C1278       C  0.66874797  0.05412170  0.22584730     0.09890
S1279       S  0.72241598  0.14424076  0.27123132    -0.33460
S1280       S  0.64851951  0.01851911  0.20856014    -0.33470
H1281       H  0.65850892  0.02562619  0.17585566     0.27900
H1282       H  0.71863001  0.13449189  0.30457271     0.27890
H1283       H  0.68282029  0.13693266  0.21510294     0.18490
H1284       H  0.69133883  0.02485070  0.26500088     0.18490
C1285       C  0.75772777  0.14611102  0.38194376    -0.07340
C1286       C  0.72481063  0.13502253  0.37995384    -0.18470
C1287       C  0.69794893  0.15605695  0.38700998     0.09860
C1288       C  0.70399322  0.18937557  0.39578648    -0.07260
C1289       C  0.73716021  0.19952280  0.40003963    -0.18500
C1290       C  0.76389792  0.17833117  0.39335583     0.09890
S1291       S  0.65714328  0.13908949  0.38271034    -0.33460
S1292       S  0.80500601  0.19470671  0.39683436    -0.33470
H1293       H  0.81966607  0.16482607  0.40751763     0.27900
H1294       H  0.64331633  0.16707972  0.36719746     0.27890
H1295       H  0.71997603  0.10998262  0.37141265     0.18490
H1296       H  0.74244426  0.22475701  0.40767264     0.18490
C1297       C  0.73617176  0.92936526  0.01674426    -0.07340
C1298       C  0.74702619  0.95576616  0.99655840    -0.18470
C1299       C  0.75156298  0.95183870  0.96217402     0.09860
C1300       C  0.74601557  0.92056184  0.94741952    -0.07260
C1301       C  0.73582937  0.89419479  0.96811613    -0.18500
C1302       C  0.72833791  0.89914983  0.00152470     0.09890
S1303       S  0.76350319  0.98772445  0.93838197    -0.33460
S1304       S  0.70930119  0.86577673  0.02428062    -0.33470
H1305       H  0.70104211  0.88475437  0.05243560     0.27900
H1306       H  0.78385105  0.96978694  0.91640127     0.27890
H1307       H  0.75453272  0.97881274  0.00800651     0.18490
H1308       H  0.72970812  0.87046585  0.95718699     0.18490
C1309       C  0.75851542  0.81808078  0.08366057    -0.07340
C1310       C  0.73380008  0.81026862  0.10737557    -0.18470
C1311       C  0.70787053  0.78856503  0.10071376     0.09860
C1312       C  0.70603165  0.77297986  0.06967699    -0.07260
C1313       C  0.73033776  0.78018742  0.04561750    -0.18500
C1314       C  0.75614601  0.80286748  0.05202267     0.09890
S1315       S  0.67786005  0.78160326  0.13318703    -0.33460
S1316       S  0.78508396  0.81095872  0.01907785    -0.33470
H1317       H  0.77917259  0.84540065  0.01863090     0.27900
H1318       H  0.65094630  0.77540770  0.11211572     0.27890
H1319       H  0.73395134  0.82170182  0.13164537     0.18490
H1320       H  0.72937690  0.76782912  0.02175750     0.18490
C1321       C  0.71213144  0.89629950  0.19191024    -0.07340
C1322       C  0.70541028  0.86317068  0.19955879    -0.18470
C1323       C  0.68518373  0.85430090  0.22635820     0.09860
C1324       C  0.66868883  0.87924245  0.24569977    -0.07260
C1325       C  0.67664764  0.91266656  0.23882286    -0.18500
C1326       C  0.69888922  0.92120598  0.21301227     0.09890
S1327       S  0.68330744  0.81023017  0.23471111    -0.33460
S1328       S  0.71242660  0.96361516  0.21036091    -0.33470
H1329       H  0.71144338  0.96520923  0.17556444     0.27900
H1330       H  0.68622517  0.81407839  0.26931795     0.27890
H1331       H  0.71733038  0.84371073  0.18525770     0.18490
H1332       H  0.66544748  0.93231117  0.25344204     0.18490
C1333       C  0.81508199  0.00272170  0.25797157    -0.07340
C1334       C  0.82176560  0.01905522  0.22797759    -0.18470
C1335       C  0.82562742  0.00098056  0.19903267     0.09860
C1336       C  0.82335314  0.96624420  0.20063195    -0.07260
C1337       C  0.82162119  0.94982950  0.23116256    -0.18500
C1338       C  0.81660941  0.96788082  0.25994341     0.09890
S1339       S  0.83047209  0.02332165  0.16059587    -0.33460
S1340       S  0.81015043  0.94530408  0.29777539    -0.33470
H1341       H  0.77561504  0.94892246  0.29591565     0.27900
H1342       H  0.84586443  0.99675524  0.14388857     0.27890
H1343       H  0.82132323  0.04597777  0.22658071     0.18490
H1344       H  0.81999353  0.92293876  0.23215557     0.18490
C1345       C  0.45849136  0.23640684  0.41415951    -0.07340
C1346       C  0.47526122  0.23478965  0.38372345    -0.18470
C1347       C  0.50926459  0.22942626  0.38242561     0.09860
C1348       C  0.52777052  0.22809874  0.41206736    -0.07260
C1349       C  0.51122854  0.23064983  0.44258730    -0.18500
C1350       C  0.47686431  0.23466446  0.44388453     0.09890
S1351       S  0.52820281  0.22528997  0.34203027    -0.33460
S1352       S  0.45732829  0.23551886  0.48413973    -0.33470
H1353       H  0.42771094  0.25040765  0.47333328     0.27900
H1354       H  0.55746111  0.20996285  0.35329492     0.27890
H1355       H  0.46128383  0.23403288  0.36078452     0.18490
H1356       H  0.52530786  0.23155832  0.46543993     0.18490
C1357       C  0.28263017  0.26314755  0.37717307    -0.07340
C1358       C  0.25344627  0.25289342  0.36106073    -0.18470
C1359       C  0.22530595  0.27336170  0.35895273     0.09860
C1360       C  0.22530795  0.30519014  0.37342355    -0.07260
C1361       C  0.25391342  0.31547187  0.39020523    -0.18500
C1362       C  0.28249403  0.29526180  0.39182636     0.09890
S1363       S  0.19008002  0.25782231  0.33663809    -0.33460
S1364       S  0.31823073  0.31288472  0.41140277    -0.33470
H1365       H  0.33929244  0.30534023  0.38457435     0.27900
H1366       H  0.16649422  0.27797389  0.35273742     0.27890
H1367       H  0.25227114  0.22847392  0.34988285     0.18490
H1368       H  0.25492741  0.34056643  0.39991386     0.18490
C1369       C  0.41395451  0.27539541  0.27142868    -0.07340
C1370       C  0.43519872  0.24740198  0.27221913    -0.18470
C1371       C  0.42798509  0.21904239  0.29161903     0.09860
C1372       C  0.39859849  0.21828235  0.31052956    -0.07260
C1373       C  0.37834573  0.24708472  0.31064278    -0.18500
C1374       C  0.38563765  0.27528854  0.29163446     0.09890
S1375       S  0.45591514  0.18410789  0.28930229    -0.33460
S1376       S  0.35657085  0.30948450  0.29268455    -0.33470
H1377       H  0.37892190  0.33437988  0.28337589     0.27900
H1378       H  0.43130449  0.15973935  0.29183918     0.27890
H1379       H  0.45666893  0.24689588  0.25612961     0.18490
H1380       H  0.35619740  0.24773822  0.32572926     0.18490
C1381       C  0.95047520  0.21939972  0.52249659    -0.07340
C1382       C  0.96968034  0.23443209  0.49734568    -0.18470
C1383       C  0.00424716  0.23715393  0.50008669     0.09860
C1384       C  0.02016956  0.22525105  0.52891340    -0.07260
C1385       C  0.00078801  0.20907814  0.55307484    -0.18500
C1386       C  0.96689299  0.20492171  0.54950394     0.09890
S1387       S  0.02659118  0.25494109  0.46578108    -0.33460
S1388       S  0.94549590  0.18171162  0.58097393    -0.33470
H1389       H  0.91648305  0.17688749  0.56251315     0.27900
H1390       H  0.05159434  0.26893628  0.48529483     0.27890
H1391       H  0.95734293  0.24659342  0.47672121     0.18490
H1392       H  0.01272296  0.19687122  0.57380058     0.18490
C1393       C  0.21650936  0.18168822  0.48797468    -0.07340
C1394       C  0.24009982  0.15799361  0.49823783    -0.18470
C1395       C  0.26705144  0.15042036  0.47819306     0.09860
C1396       C  0.26936857  0.16592823  0.44713969    -0.07260
C1397       C  0.24504982  0.18796527  0.43606365    -0.18500
C1398       C  0.21929383  0.19722715  0.45663519     0.09890
S1399       S  0.29841234  0.12257109  0.49404778    -0.33460
S1400       S  0.19348598  0.23190469  0.44382165    -0.33470
H1401       H  0.20025352  0.22939307  0.40969925     0.27900
H1402       H  0.31329860  0.11529373  0.46332631     0.27890
H1403       H  0.23786746  0.14576510  0.52212409     0.18490
H1404       H  0.24837696  0.20084729  0.41265391     0.18490
C1405       C  0.02759440  0.43840018  0.73086299    -0.07340
C1406       C  0.01951792  0.46141908  0.75630327    -0.18470
C1407       C  0.02433781  0.49591791  0.75250029     0.09860
C1408       C  0.03639922  0.50818858  0.72211528    -0.07260
C1409       C  0.04010842  0.48546349  0.69547417    -0.18500
C1410       C  0.03588979  0.45107777  0.69950871     0.09890
S1411       S  0.01824610  0.52212349  0.78820630    -0.33460
S1412       S  0.04448455  0.42446971  0.66464296    -0.33470
H1413       H  0.02464118  0.39809955  0.67559956     0.27900
H1414       H  0.04591928  0.54222315  0.78228897     0.27890
H1415       H  0.01326558  0.45206307  0.78076213     0.18490
H1416       H  0.04789150  0.49442149  0.67133629     0.18490
C1417       C  0.09668659  0.21806153  0.64502668    -0.07340
C1418       C  0.12428689  0.23159372  0.66154271    -0.18470
C1419       C  0.12141919  0.25775708  0.68453667     0.09860
C1420       C  0.09019674  0.27192097  0.69171903    -0.07260
C1421       C  0.06244611  0.25851051  0.67565805    -0.18500
C1422       C  0.06518988  0.23149497  0.65334024     0.09890
S1423       S  0.15897849  0.27264066  0.70320242    -0.33460
S1424       S  0.02725153  0.21391364  0.63872947    -0.33470
H1425       H  0.03848244  0.18079806  0.64080804     0.27900
H1426       H  0.14869992  0.30603119  0.70517178     0.27890
H1427       H  0.14884628  0.22237732  0.65594399     0.18490
H1428       H  0.03810045  0.26787560  0.68203515     0.18490
C1429       C  0.95217457  0.00723997  0.73344612    -0.07340
C1430       C  0.94263698  0.98679898  0.76037710    -0.18470
C1431       C  0.94665104  0.95228860  0.75963627     0.09860
C1432       C  0.96044214  0.93734370  0.73144506    -0.07260
C1433       C  0.97318933  0.95796036  0.70607731    -0.18500
C1434       C  0.96914719  0.99261842  0.70669456     0.09890
S1435       S  0.93061084  0.92828533  0.79376599    -0.33460
S1436       S  0.98277505  0.01603051  0.67111942    -0.33470
H1437       H  0.95518589  0.03744437  0.67030641     0.27900
H1438       H  0.94875127  0.89920822  0.78666381     0.27890
H1439       H  0.93086040  0.99764492  0.78197842     0.18490
H1440       H  0.98280930  0.94678131  0.68360094     0.18490
C1441       C  0.77923536  0.08058186  0.68618515    -0.07340
C1442       C  0.78215651  0.11269840  0.69924513    -0.18470
C1443       C  0.80497889  0.12000730  0.72427465     0.09860
C1444       C  0.82630321  0.09477010  0.73678770    -0.07260
C1445       C  0.82249747  0.06224837  0.72464775    -0.18500
C1446       C  0.79935392  0.05494656  0.69965387     0.09890
S1447       S  0.80478817  0.16207275  0.73971898    -0.33460
S1448       S  0.79523417  0.01216841  0.68743336    -0.33470
H1449       H  0.80037297  0.01886786  0.65356963     0.27900
H1450       H  0.81253604  0.15312373  0.77260882     0.27890
H1451       H  0.76601849  0.13230896  0.69018558     0.18490
H1452       H  0.83850430  0.04255933  0.73373896     0.18490
C1453       C  0.90444413  0.23513944  0.63622602    -0.07340
C1454       C  0.88768541  0.20439383  0.63479793    -0.18470
C1455       C  0.89696343  0.17704279  0.65445753     0.09860
C1456       C  0.92362176  0.18002637  0.67637376    -0.07260
C1457       C  0.94153509  0.21002719  0.67680067    -0.18500
C1458       C  0.93267988  0.23727357  0.65652891     0.09890
S1459       S  0.87291501  0.13937442  0.65367766    -0.33460
S1460       S  0.95600685  0.27492191  0.66020836    -0.33470
H1461       H  0.96201475  0.27718578  0.62588558     0.27900
H1462       H  0.85074081  0.14941772  0.62868211     0.27890
H1463       H  0.86652844  0.20199156  0.61860667     0.18490
H1464       H  0.96157414  0.21282429  0.69436555     0.18490
C1465       C  0.03680511  0.24460528  0.80918882    -0.07340
C1466       C  0.04953622  0.21588159  0.79469095    -0.18470
C1467       C  0.02881597  0.18941966  0.78779879     0.09860
C1468       C  0.99492576  0.19228502  0.79627708    -0.07260
C1469       C  0.98420734  0.21852254  0.81664264    -0.18500
C1470       C  0.00513302  0.24489403  0.82326076     0.09890
S1471       S  0.04592888  0.15423717  0.76564787    -0.33460
S1472       S  0.98915201  0.28000009  0.84612752    -0.33470
H1473       H  0.01996713  0.29470824  0.85224712     0.27900
H1474       H  0.07937497  0.16154620  0.77132942     0.27890
H1475       H  0.07434887  0.21608619  0.78456305     0.18490
H1476       H  0.95874740  0.22011925  0.82482865     0.18490
C1477       C  0.23322690  0.42760781  0.51534530    -0.07340
C1478       C  0.24371230  0.45398829  0.49471847    -0.18470
C1479       C  0.24618131  0.45056006  0.45998800     0.09860
C1480       C  0.23968361  0.41952066  0.44518198    -0.07260
C1481       C  0.23049688  0.39300419  0.46628408    -0.18500
C1482       C  0.22468443  0.39760508  0.50007141     0.09890
S1483       S  0.25712181  0.48665869  0.43603355    -0.33460
S1484       S  0.20700922  0.36374062  0.52307856    -0.33470
H1485       H  0.19841218  0.38249315  0.55128410     0.27900
H1486       H  0.27832761  0.46907068  0.41456737     0.27890
H1487       H  0.25217221  0.47682771  0.50562505     0.18490
H1488       H  0.22432614  0.36905960  0.45571270     0.18490
C1489       C  0.24737553  0.31889901  0.58186472    -0.07340
C1490       C  0.21789562  0.32002165  0.60091877    -0.18470
C1491       C  0.19001690  0.30073597  0.59332930     0.09860
C1492       C  0.19084854  0.27868677  0.56622904    -0.07260
C1493       C  0.21981536  0.27785283  0.54655578    -0.18500
C1494       C  0.24759797  0.29790692  0.55368300     0.09890
S1495       S  0.15391295  0.30578544  0.61908327    -0.33460
S1496       S  0.28289797  0.29467284  0.52680760    -0.33470
H1497       H  0.28170561  0.32851777  0.51796296     0.27900
H1498       H  0.13094674  0.29366068  0.59603249     0.27890
H1499       H  0.21617016  0.33665312  0.62199010     0.18490
H1500       H  0.22120432  0.26064768  0.52592097     0.18490
C1501       C  0.20893781  0.39978993  0.69368502    -0.07340
C1502       C  0.17696698  0.39147969  0.68418977    -0.18470
C1503       C  0.15201489  0.38605758  0.70767083     0.09860
C1504       C  0.15832135  0.38938350  0.74237118    -0.07260
C1505       C  0.18995513  0.39962622  0.75188523    -0.18500
C1506       C  0.21500770  0.40525739  0.72807666     0.09890
S1507       S  0.11329402  0.37292700  0.69063368    -0.33460
S1508       S  0.25399595  0.41995019  0.74323024    -0.33470
H1509       H  0.25758439  0.44338074  0.71761444     0.27900
H1510       H  0.09503207  0.37850649  0.71921514     0.27890
H1511       H  0.17165678  0.38759528  0.65811146     0.18490
H1512       H  0.19564088  0.40195237  0.77804637     0.18490
C1513       C  0.24066015  0.52073428  0.93848410    -0.07340
C1514       C  0.25805999  0.50019530  0.96111905    -0.18470
C1515       C  0.25739322  0.50604530  0.99563283     0.09860
C1516       C  0.24038688  0.53419235  0.00795583    -0.07260
C1517       C  0.22293697  0.55429964  0.98468231    -0.18500
C1518       C  0.22132471  0.54668936  0.95103978     0.09890
S1519       S  0.27937387  0.47748070  0.02212514    -0.33460
S1520       S  0.19679614  0.57324677  0.92443582    -0.33470
H1521       H  0.19436478  0.55036601  0.89821865     0.27900
H1522       H  0.25269710  0.47256665  0.04390038     0.27890
H1523       H  0.27410901  0.48076177  0.95156553     0.18490
H1524       H  0.20914298  0.57599301  0.99279640     0.18490
C1525       C  0.32612075  0.46508652  0.69449987    -0.07340
C1526       C  0.31898170  0.49893006  0.69025128    -0.18470
C1527       C  0.31779279  0.51983975  0.71739396     0.09860
C1528       C  0.32541742  0.50657943  0.74879197    -0.07260
C1529       C  0.33877876  0.47465627  0.75199707    -0.18500
C1530       C  0.33929991  0.45345641  0.72483296     0.09890
S1531       S  0.29994299  0.56059765  0.71119379    -0.33460
S1532       S  0.35282748  0.41126661  0.73171561    -0.33470
H1533       H  0.32166323  0.39755337  0.72530848     0.27900
H1534       H  0.32031222  0.57676902  0.73396863     0.27890
H1535       H  0.31012223  0.50813196  0.66652039     0.18490
H1536       H  0.34548197  0.46517149  0.77629647     0.18490
C1537       C  0.16646928  0.58050872  0.71429410    -0.07340
C1538       C  0.18928798  0.60499180  0.72345810    -0.18470
C1539       C  0.21084626  0.60072304  0.75022563     0.09860
C1540       C  0.21111850  0.57064563  0.76857325    -0.07260
C1541       C  0.18908485  0.54551620  0.75900342    -0.18500
C1542       C  0.16707450  0.54997352  0.73210467     0.09890
S1543       S  0.23581585  0.63590033  0.76112183    -0.33460
S1544       S  0.13978527  0.51620249  0.72275581    -0.33470
H1545       H  0.14646293  0.51702587  0.68849942     0.27900
H1546       H  0.23152772  0.63073152  0.79533646     0.27890
H1547       H  0.18911201  0.62875096  0.71070621     0.18490
H1548       H  0.18956077  0.52191459  0.77200593     0.18490
C1549       C  0.54158400  0.74817949  0.01488958    -0.07340
C1550       C  0.52076525  0.72968184  0.99387804    -0.18470
C1551       C  0.48654782  0.72787770  0.99957574     0.09860
C1552       C  0.47276178  0.74478960  0.02692633    -0.07260
C1553       C  0.49373383  0.76455430  0.04666866    -0.18500
C1554       C  0.52724413  0.76772806  0.03973077     0.09890
S1555       S  0.46191786  0.70412275  0.97118101    -0.33460
S1556       S  0.55156985  0.79529341  0.06485306    -0.33470
H1557       H  0.57927400  0.79542476  0.04373487     0.27900
H1558       H  0.44209562  0.68996431  0.99605670     0.27890
H1559       H  0.53168369  0.71381824  0.97503851     0.18490
H1560       H  0.48349559  0.77923874  0.06680474     0.18490
C1561       C  0.30582579  0.68374573  0.07175234    -0.07340
C1562       C  0.28125271  0.67816588  0.04751199    -0.18470
C1563       C  0.25195807  0.66035124  0.05471618     0.09860
C1564       C  0.24686052  0.64680828  0.08685639    -0.07260
C1565       C  0.27226581  0.65185649  0.11052905    -0.18500
C1566       C  0.30104139  0.66978124  0.10346023     0.09890
S1567       S  0.22140107  0.65766282  0.02248872    -0.33460
S1568       S  0.33091449  0.67412689  0.13631824    -0.33470
H1569       H  0.35834678  0.67755437  0.11518052     0.27900
H1570       H  0.19483884  0.66561979  0.04365059     0.27890
H1571       H  0.28375433  0.68980827  0.02337328     0.18490
H1572       H  0.27019599  0.64140125  0.13522984     0.18490
C1573       C  0.40209150  0.74478827  0.14260417    -0.07340
C1574       C  0.41902337  0.71580764  0.13211273    -0.18470
C1575       C  0.42248365  0.68757314  0.15296566     0.09860
C1576       C  0.40813989  0.68759803  0.18511461    -0.07260
C1577       C  0.39162016  0.71707112  0.19523664    -0.18500
C1578       C  0.38897005  0.74525000  0.17496677     0.09890
S1579       S  0.44399843  0.65199936  0.13655732    -0.33460
S1580       S  0.36896257  0.78148613  0.19235919    -0.33470
H1581       H  0.38754879  0.80475305  0.17424622     0.27900
H1582       H  0.46867116  0.65269253  0.16105656     0.27890
H1583       H  0.42860448  0.71464802  0.10700439     0.18490
H1584       H  0.38118974  0.71893783  0.21992920     0.18490
C1585       C  0.96214886  0.73623634  0.92567254    -0.07340
C1586       C  0.97977449  0.72316556  0.95285082    -0.18470
C1587       C  0.01371188  0.71705548  0.95078274     0.09860
C1588       C  0.03034229  0.72354042  0.92079186    -0.07260
C1589       C  0.01218670  0.73584600  0.89348741    -0.18500
C1590       C  0.97916392  0.74489387  0.89681046     0.09890
S1591       S  0.03484095  0.70276355  0.98752644    -0.33460
S1592       S  0.95966270  0.76821964  0.86395083    -0.33470
H1593       H  0.93337769  0.78038481  0.88337837     0.27900
H1594       H  0.06110669  0.68740610  0.97048015     0.27890
H1595       H  0.96652953  0.71541348  0.97493593     0.18490
H1596       H  0.02501271  0.74344137  0.87111234     0.18490
C1597       C  0.20509444  0.68679834  0.88748267    -0.07340
C1598       C  0.21882851  0.66939483  0.91471828    -0.18470
C1599       C  0.24718484  0.64876393  0.91107924     0.09860
C1600       C  0.26263324  0.64566271  0.87957979    -0.07260
C1601       C  0.25054941  0.66619973  0.85375740    -0.18500
C1602       C  0.22163891  0.68495781  0.85675291     0.09890
S1603       S  0.26387921  0.62970759  0.94783772    -0.33460
S1604       S  0.20635495  0.70501019  0.81959267    -0.33470
H1605       H  0.17272290  0.70128313  0.82753873     0.27900
H1606       H  0.26526494  0.59782496  0.93429357     0.27890
H1607       H  0.20788835  0.67245749  0.93909050     0.18490
H1608       H  0.26263471  0.66608219  0.82976043     0.18490
C1609       C  0.08589533  0.74012740  0.81525021    -0.07340
C1610       C  0.07319358  0.70912845  0.82560362    -0.18470
C1611       C  0.06764576  0.68268868  0.80300693     0.09860
C1612       C  0.07629151  0.68627263  0.76903272    -0.07260
C1613       C  0.08801587  0.71791430  0.75897312    -0.18500
C1614       C  0.09269537  0.74432248  0.78124739     0.09890
S1615       S  0.05106916  0.64472632  0.81941398    -0.33460
S1616       S  0.10919907  0.78256629  0.76492469    -0.33470
H1617       H  0.09623377  0.80328897  0.78990438     0.27900
H1618       H  0.02507511  0.64386650  0.79629909     0.27890
H1619       H  0.06901004  0.70484985  0.85182034     0.18490
H1620       H  0.09418372  0.72242169  0.73320032     0.18490
C1621       C  0.27343628  0.77661188  0.99519621    -0.07340
C1622       C  0.24941095  0.80027369  0.00426059    -0.18470
C1623       C  0.22235613  0.80615978  0.98390625     0.09860
C1624       C  0.22031503  0.78874369  0.95392770    -0.07260
C1625       C  0.24480788  0.76640571  0.94412271    -0.18500
C1626       C  0.27071180  0.75886571  0.96503400     0.09890
S1627       S  0.19098996  0.83505654  0.99765560    -0.33460
S1628       S  0.29762685  0.72435328  0.95395908    -0.33470
H1629       H  0.28399042  0.71736395  0.92266128     0.27900
H1630       H  0.17599364  0.83986975  0.96653280     0.27890
H1631       H  0.25167664  0.81412061  0.02718674     0.18490
H1632       H  0.24168079  0.75231198  0.92143004     0.18490
C1633       C  0.89394191  0.83832804  0.57251451    -0.07340
C1634       C  0.90145983  0.80497067  0.56582619    -0.18470
C1635       C  0.90590951  0.79349614  0.53346851     0.09860
C1636       C  0.90027248  0.81510639  0.50620069    -0.07260
C1637       C  0.89332832  0.84881740  0.51273940    -0.18500
C1638       C  0.89050263  0.86068618  0.54556450     0.09890
S1639       S  0.92028915  0.75115669  0.52894693    -0.33460
S1640       S  0.88089419  0.90409470  0.55138070    -0.33470
H1641       H  0.86430768  0.90027343  0.58182623     0.27900
H1642       H  0.93937309  0.75770454  0.50048886     0.27890
H1643       H  0.90532676  0.78772209  0.58607847     0.18490
H1644       H  0.88866218  0.86570392  0.49226959     0.18490
C1645       C  0.83766060  0.88695790  0.37723091    -0.07340
C1646       C  0.86271122  0.91108136  0.37712148    -0.18470
C1647       C  0.85525641  0.94511540  0.37738173     0.09860
C1648       C  0.82198752  0.95550258  0.37966985    -0.07260
C1649       C  0.79713123  0.93115486  0.38124641    -0.18500
C1650       C  0.80445092  0.89736610  0.37891880     0.09890
S1651       S  0.88902240  0.97365512  0.37279088    -0.33460
S1652       S  0.77029293  0.86895411  0.37927245    -0.33470
H1653       H  0.77860319  0.85526860  0.34821777     0.27900
H1654       H  0.87413289  0.99137451  0.34654932     0.27890
H1655       H  0.88836996  0.90332348  0.37603119     0.18490
H1656       H  0.77139152  0.93853191  0.38289999     0.18490
C1657       C  0.60331901  0.82062403  0.45321795    -0.07340
C1658       C  0.63082208  0.81585451  0.43210174    -0.18470
C1659       C  0.63017925  0.82517742  0.39873610     0.09860
C1660       C  0.60132493  0.83963306  0.38561494    -0.07260
C1661       C  0.57451095  0.84631105  0.40698181    -0.18500
C1662       C  0.57491964  0.83642293  0.44037991     0.09890
S1663       S  0.66710694  0.81843454  0.37448502    -0.33460
S1664       S  0.53766165  0.84205359  0.46421674    -0.33470
H1665       H  0.53832826  0.80988046  0.47801795     0.27900
H1666       H  0.66300730  0.84672733  0.35427108     0.27890
H1667       H  0.65311908  0.80421668  0.44157192     0.18490
H1668       H  0.55230078  0.85763026  0.39714336     0.18490
C1669       C  0.72715521  0.80638696  0.51473074    -0.07340
C1670       C  0.75241160  0.78562068  0.52613566    -0.18470
C1671       C  0.77994992  0.77967069  0.50667979     0.09860
C1672       C  0.78237265  0.79584902  0.47549820    -0.07260
C1673       C  0.75914107  0.82066923  0.46697205    -0.18500
C1674       C  0.73121536  0.82584903  0.48630380     0.09890
S1675       S  0.80874436  0.74890705  0.52203662    -0.33460
S1676       S  0.70040907  0.85515873  0.47217622    -0.33470
H1677       H  0.68420216  0.85867864  0.50288958     0.27900
H1678       H  0.79502074  0.72365447  0.50229799     0.27890
H1679       H  0.74891603  0.77100709  0.54853431     0.18490
H1680       H  0.76126348  0.83440768  0.44397347     0.18490
C1681       C  0.63920198  0.88878812  0.58935966    -0.07340
C1682       C  0.67262154  0.89602080  0.59286431    -0.18470
C1683       C  0.68427718  0.92831380  0.58968617     0.09860
C1684       C  0.66172670  0.95514777  0.58392809    -0.07260
C1685       C  0.62811950  0.94791270  0.58002025    -0.18500
C1686       C  0.61662129  0.91511501  0.58289628     0.09890
S1687       S  0.72860826  0.93241760  0.59343870    -0.33460
S1688       S  0.57273478  0.90871811  0.57980312    -0.33470
H1689       H  0.57189088  0.88190140  0.60226838     0.27900
H1690       H  0.73198176  0.96000738  0.57252492     0.27890
H1691       H  0.69026536  0.87597425  0.59665567     0.18490
H1692       H  0.61052688  0.96801525  0.57650617     0.18490
C1693       C  0.52169248  0.87106417  0.81024721    -0.07340
C1694       C  0.54456077  0.84599579  0.80085372    -0.18470
C1695       C  0.57721172  0.84590945  0.81145587     0.09860
C1696       C  0.58863828  0.87234582  0.83091907    -0.07260
C1697       C  0.56598474  0.89712914  0.84115015    -0.18500
C1698       C  0.53290432  0.89701968  0.83078964     0.09890
S1699       S  0.60245778  0.81053821  0.80022182    -0.33460
S1700       S  0.50720016  0.93152367  0.84310767    -0.33470
H1701       H  0.49654664  0.93838144  0.81055182     0.27900
H1702       H  0.61897900  0.80887232  0.83090887     0.27890
H1703       H  0.53698682  0.82539158  0.78542859     0.18490
H1704       H  0.57441796  0.91763937  0.85619122     0.18490
C1705       C  0.38999884  0.84512370  0.88767265    -0.07340
C1706       C  0.35943614  0.84048352  0.90327985    -0.18470
C1707       C  0.35736674  0.83523552  0.93769993     0.09860
C1708       C  0.38644854  0.83249304  0.95695460    -0.07260
C1709       C  0.41683978  0.83842302  0.94168930    -0.18500
C1710       C  0.41889363  0.84560711  0.90770988     0.09890
S1711       S  0.31683835  0.83244833  0.95556368    -0.33460
S1712       S  0.45961285  0.85228667  0.89116036    -0.33470
H1713       H  0.45287104  0.88569013  0.88305461     0.27900
H1714       H  0.32634781  0.83982669  0.98828070     0.27890
H1715       H  0.33700837  0.84123470  0.88864868     0.18490
H1716       H  0.43934269  0.83590679  0.95604591     0.18490
C1717       C  0.40319925  0.57457781  0.82896483    -0.07340
C1718       C  0.42812860  0.56199153  0.85019304    -0.18470
C1719       C  0.46070791  0.55678089  0.83894005     0.09860
C1720       C  0.46887877  0.56467550  0.80587079    -0.07260
C1721       C  0.44281697  0.57217781  0.78386704    -0.18500
C1722       C  0.41087432  0.57904017  0.79503106     0.09890
S1723       S  0.48979881  0.53803477  0.86701147    -0.33460
S1724       S  0.38138260  0.59519894  0.76529100    -0.33470
H1725       H  0.40113238  0.59293673  0.73663940     0.27900
H1726       H  0.50557537  0.51891720  0.84236369     0.27890
H1727       H  0.42218177  0.55597240  0.87572848     0.18490
H1728       H  0.44821593  0.57606003  0.75783885     0.18490
C1729       C  0.57230423  0.69468404  0.69229730    -0.07340
C1730       C  0.58961741  0.68504908  0.66416184    -0.18470
C1731       C  0.60054424  0.70838259  0.64126973     0.09860
C1732       C  0.59341721  0.74286485  0.64559039    -0.07260
C1733       C  0.57468956  0.75256231  0.67324703    -0.18500
C1734       C  0.56415200  0.72883741  0.69670631     0.09890
S1735       S  0.62072521  0.69121605  0.60557306    -0.33460
S1736       S  0.54024490  0.74356106  0.73155121    -0.33470
H1737       H  0.52060178  0.71497064  0.73389030     0.27900
H1738       H  0.60666959  0.71451522  0.58410564     0.27890
H1739       H  0.59576082  0.65902147  0.66049681     0.18490
H1740       H  0.56878832  0.77860169  0.67690880     0.18490
C1741       C  0.49895905  0.69195977  0.80747639    -0.07340
C1742       C  0.51123637  0.72048424  0.82298152    -0.18470
C1743       C  0.49176065  0.74905134  0.82498077     0.09860
C1744       C  0.45979072  0.74850575  0.81145816    -0.07260
C1745       C  0.44585108  0.71876130  0.80131905    -0.18500
C1746       C  0.46512938  0.69038126  0.79933753     0.09890
S1747       S  0.50964147  0.78564149  0.84293437    -0.33460
S1748       S  0.44574587  0.65381436  0.78384590    -0.33470
H1749       H  0.46380800  0.63362704  0.80584303     0.27900
H1750       H  0.48082428  0.80513807  0.84246397     0.27890
H1751       H  0.53689812  0.72172585  0.83043131     0.18490
H1752       H  0.42084615  0.71839700  0.79167870     0.18490
C1753       C  0.59928231  0.62562183  0.88088078    -0.07340
C1754       C  0.62775729  0.64256615  0.88995060    -0.18470
C1755       C  0.63244828  0.65414250  0.92212904     0.09860
C1756       C  0.60797099  0.64834827  0.94715007    -0.07260
C1757       C  0.57984184  0.63025059  0.93826886    -0.18500
C1758       C  0.57484198  0.61972070  0.90540873     0.09890
S1759       S  0.67009014  0.67726442  0.92776132    -0.33460
S1760       S  0.53524383  0.60232978  0.89591530    -0.33470
H1761       H  0.53069707  0.62092475  0.86661684     0.27900
H1762       H  0.67812925  0.66131570  0.95746093     0.27890
H1763       H  0.64657070  0.64747391  0.87142694     0.18490
H1764       H  0.56055363  0.62617738  0.95646152     0.18490
C1765       C  0.82928640  0.51002457  0.86660999    -0.07340
C1766       C  0.81512706  0.53454621  0.84579265    -0.18470
C1767       C  0.82441660  0.56773342  0.84737993     0.09860
C1768       C  0.84906057  0.57733744  0.86979379    -0.07260
C1769       C  0.86486103  0.55299410  0.88935137    -0.18500
C1770       C  0.85471298  0.51961359  0.88860442     0.09890
S1771       S  0.80313433  0.59708854  0.82089233    -0.33460
S1772       S  0.87288597  0.49162290  0.91839691    -0.33470
H1773       H  0.84240652  0.47877693  0.92903683     0.27900
H1774       H  0.83106814  0.61675965  0.81458715     0.27890
H1775       H  0.79584910  0.52811586  0.82838342     0.18490
H1776       H  0.88350379  0.56044818  0.90706743     0.18490
C1777       C  0.96431852  0.36440326  0.81582009    -0.07340
C1778       C  0.95508254  0.38403151  0.84300958    -0.18470
C1779       C  0.92177328  0.38684722  0.85299245     0.09860
C1780       C  0.89652663  0.36909613  0.83588324    -0.07260
C1781       C  0.90604169  0.34885106  0.80944877    -0.18500
C1782       C  0.93881224  0.34650189  0.79900249     0.09890
S1783       S  0.91345029  0.41481832  0.88677992    -0.33460
S1784       S  0.94474781  0.32194986  0.76194417    -0.33470
H1785       H  0.95942035  0.29539552  0.77941464     0.27900
H1786       H  0.89534276  0.43674632  0.86638593     0.27890
H1787       H  0.97380462  0.39783696  0.85620395     0.18490
H1788       H  0.88744204  0.33541078  0.79568775     0.18490
C1789       C  0.83022187  0.45464620  0.58284806    -0.07340
C1790       C  0.81216751  0.43023845  0.60048654    -0.18470
C1791       C  0.82228818  0.39722723  0.60287436     0.09860
C1792       C  0.85135554  0.38667063  0.58675228    -0.07260
C1793       C  0.86965615  0.41067824  0.56877186    -0.18500
C1794       C  0.85937891  0.44427844  0.56654489     0.09890
S1795       S  0.79564237  0.36975701  0.62571644    -0.33460
S1796       S  0.88433517  0.47241088  0.54275104    -0.33470
H1797       H  0.85761313  0.48403431  0.52358168     0.27900
H1798       H  0.77966884  0.35916887  0.59665174     0.27890
H1799       H  0.78922826  0.43660925  0.61285015     0.18490
H1800       H  0.89184928  0.40312180  0.55569506     0.18490
C1801       C  0.76860169  0.65755200  0.58046649    -0.07340
C1802       C  0.75776170  0.67951266  0.60543656    -0.18470
C1803       C  0.72904405  0.69861144  0.60225090     0.09860
C1804       C  0.71094620  0.69836486  0.57222815    -0.07260
C1805       C  0.72264280  0.67815655  0.54616644    -0.18500
C1806       C  0.75116822  0.65795735  0.54988085     0.09890
S1807       S  0.71585818  0.72108758  0.63874532    -0.33460
S1808       S  0.76356397  0.63329516  0.51482637    -0.33470
H1809       H  0.79744952  0.63913948  0.51932892     0.27900
H1810       H  0.68198603  0.71647120  0.63329402     0.27890
H1811       H  0.77033526  0.67974127  0.62917941     0.18490
H1812       H  0.70999036  0.67870201  0.52248449     0.18490
C1813       C  0.70281439  0.57609622  0.67776753    -0.07340
C1814       C  0.69086300  0.60857578  0.68079704    -0.18470
C1815       C  0.66996604  0.61830982  0.70708123     0.09860
C1816       C  0.66005537  0.59472661  0.73188142    -0.07260
C1817       C  0.67273475  0.56217613  0.72900974    -0.18500
C1818       C  0.69377794  0.55274759  0.70256634     0.09890
S1819       S  0.65860581  0.66188260  0.70854674    -0.33460
S1820       S  0.70922660  0.51066875  0.70249529    -0.33470
H1821       H  0.70791708  0.50728186  0.66781588     0.27900
H1822       H  0.66515006  0.66927357  0.67503629     0.27890
H1823       H  0.69943331  0.62699700  0.66317823     0.18490
H1824       H  0.66584303  0.54362425  0.74722703     0.18490
C1825       C  0.81480998  0.50173677  0.70008817    -0.07340
C1826       C  0.81411631  0.46771794  0.69327276    -0.18470
C1827       C  0.81678403  0.44495919  0.71892983     0.09860
C1828       C  0.81924040  0.45705006  0.75153945    -0.07260
C1829       C  0.82499224  0.49065534  0.75760720    -0.18500
C1830       C  0.82257104  0.51341602  0.73189916     0.09890
S1831       S  0.81114740  0.40166800  0.70935524    -0.33460
S1832       S  0.82346089  0.55702892  0.74157849    -0.33470
H1833       H  0.80184951  0.55281357  0.76849723     0.27900
H1834       H  0.83710048  0.39084804  0.72995853     0.27890
H1835       H  0.80910463  0.45901964  0.66836735     0.18490
H1836       H  0.82749686  0.49945738  0.78287162     0.18490
C1837       C  0.90374528  0.57961406  0.62569556    -0.07340
C1838       C  0.92397743  0.60478233  0.61315235    -0.18470
C1839       C  0.95836276  0.60316823  0.61714600     0.09860
C1840       C  0.97282619  0.57662701  0.63520602    -0.07260
C1841       C  0.95279818  0.55046518  0.64585990    -0.18500
C1842       C  0.91860138  0.55148061  0.64072771     0.09890
S1843       S  0.98277083  0.63553705  0.59847278    -0.33460
S1844       S  0.89459022  0.51694602  0.65515368    -0.33470
H1845       H  0.87990398  0.53629249  0.68023549     0.27900
H1846       H  0.01311813  0.61836350  0.59951646     0.27890
H1847       H  0.91303450  0.62541632  0.59966589     0.18490
H1848       H  0.96349325  0.53024882  0.66016392     0.18490
C1849       C  0.96893350  0.09240311  0.31250770    -0.07340
C1850       C  0.94585109  0.11369981  0.29689316    -0.18470
C1851       C  0.91213140  0.11271282  0.30427830     0.09860
C1852       C  0.90061509  0.09104545  0.32934335    -0.07260
C1853       C  0.92407867  0.07136872  0.34657595    -0.18500
C1854       C  0.95768872  0.07129183  0.33805318     0.09890
S1855       S  0.88535856  0.13854307  0.27938670    -0.33460
S1856       S  0.98419988  0.04200175  0.35908230    -0.33470
H1857       H  0.99804358  0.02936479  0.32962014     0.27900
H1858       H  0.86788220  0.11123468  0.26669752     0.27890
H1859       H  0.95390758  0.13044467  0.27742721     0.18490
H1860       H  0.91606033  0.05453722  0.36595528     0.18490
C1861       C  0.09957748  0.13388535  0.45322431    -0.07340
C1862       C  0.06976017  0.13440633  0.43549130    -0.18470
C1863       C  0.06851570  0.12674248  0.40139933     0.09860
C1864       C  0.09777852  0.11821692  0.38389406    -0.07260
C1865       C  0.12749032  0.11654310  0.40177573    -0.18500
C1866       C  0.12865840  0.12402835  0.43603311     0.09890
S1867       S  0.02866239  0.12914289  0.38157125    -0.33460
S1868       S  0.16839135  0.12174941  0.45592471    -0.33470
H1869       H  0.15668459  0.11857206  0.48860068     0.27900
H1870       H  0.03988115  0.14192004  0.35114630     0.27890
H1871       H  0.04739998  0.14257858  0.44793108     0.18490
H1872       H  0.15007347  0.10991240  0.38886764     0.18490
C1873       C  0.01646337  0.37811697  0.30814933    -0.07340
C1874       C  0.03659257  0.35197996  0.29624607    -0.18470
C1875       C  0.06950677  0.34812598  0.30616924     0.09860
C1876       C  0.08349927  0.37154385  0.32794416    -0.07260
C1877       C  0.06285798  0.39697605  0.34087578    -0.18500
C1878       C  0.02978461  0.40059695  0.33111049     0.09890
S1879       S  0.09176959  0.31241548  0.29069702    -0.33460
S1880       S  0.00675044  0.43560042  0.34701579    -0.33470
H1881       H  0.98901417  0.44181649  0.31762875     0.27900
H1882       H  0.10775966  0.30567292  0.32099828     0.27890
H1883       H  0.02648229  0.33405451  0.27908381     0.18490
H1884       H  0.07289533  0.41531508  0.35766327     0.18490
C1885       C  0.98755241  0.26718100  0.27923226    -0.07340
C1886       C  0.99743874  0.25495037  0.24832603    -0.18470
C1887       C  0.01418321  0.22533377  0.24566316     0.09860
C1888       C  0.02289137  0.20818134  0.27483576    -0.07260
C1889       C  0.01529250  0.22140290  0.30617289    -0.18500
C1890       C  0.99722050  0.25097482  0.30865560     0.09890
S1891       S  0.02346901  0.21000514  0.20454523    -0.33460
S1892       S  0.98772592  0.26700466  0.34931003    -0.33470
H1893       H  0.98746772  0.30057533  0.33944883     0.27900
H1894       H  0.00494761  0.23326474  0.18611062     0.27890
H1895       H  0.98999405  0.26753077  0.22572548     0.18490
H1896       H  0.02264180  0.20826042  0.32851518     0.18490
C1897       C  0.88798922  0.33063037  0.38260220    -0.07340
C1898       C  0.86094760  0.31163608  0.39201888    -0.18470
C1899       C  0.85581060  0.30291689  0.42499700     0.09860
C1900       C  0.87882254  0.31294819  0.44977329    -0.07260
C1901       C  0.90547335  0.33293294  0.44035274    -0.18500
C1902       C  0.91062645  0.34141274  0.40706293     0.09890
S1903       S  0.81911705  0.27891763  0.43265475    -0.33460
S1904       S  0.94803430  0.36346434  0.39727932    -0.33470
H1905       H  0.95548964  0.34421377  0.36911795     0.27900
H1906       H  0.81140365  0.29570803  0.46190060     0.27890
H1907       H  0.84339746  0.30363378  0.37341153     0.18490
H1908       H  0.92353266  0.34036012  0.45867536     0.18490
C1909       C  0.10190440  0.32633945  0.96003733    -0.07340
C1910       C  0.13159905  0.32863572  0.94183007    -0.18470
C1911       C  0.13190596  0.33573672  0.90741425     0.09860
C1912       C  0.10177526  0.34007581  0.89006348    -0.07260
C1913       C  0.07218334  0.33809043  0.90853070    -0.18500
C1914       C  0.07190623  0.33108257  0.94280172     0.09890
S1915       S  0.17147951  0.33907361  0.88727107    -0.33460
S1916       S  0.03227840  0.32562617  0.96250086    -0.33470
H1917       H  0.04224082  0.33511481  0.99447229     0.27900
H1918       H  0.16181130  0.36459954  0.86535324     0.27890
H1919       H  0.15482034  0.32399700  0.95439975     0.18490
H1920       H  0.04873159  0.34092608  0.89587262     0.18490
C1921       C  0.09756962  0.18061005  0.18348247    -0.07340
C1922       C  0.11744351  0.20742386  0.19439968    -0.18470
C1923       C  0.12060270  0.23740426  0.17655978     0.09860
C1924       C  0.10451089  0.24163722  0.14580078    -0.07260
C1925       C  0.08586470  0.21452917  0.13383748    -0.18500
C1926       C  0.08205700  0.18458123  0.15211534     0.09890
S1927       S  0.14451991  0.26996165  0.19537216    -0.33460
S1928       S  0.05731263  0.15250881  0.13382906    -0.33470
H1929       H  0.03344517  0.15322164  0.15918224     0.27900
H1930       H  0.12498212  0.29625816  0.18302018     0.27890
H1931       H  0.12978981  0.20591557  0.21817882     0.18490
H1932       H  0.07449653  0.21637328  0.10960106     0.18490
C1933       C  0.15127812  0.46280898  0.07576187    -0.07340
C1934       C  0.13308280  0.44920998  0.10221320    -0.18470
C1935       C  0.12863215  0.41463220  0.10541689     0.09860
C1936       C  0.14281936  0.39278019  0.08176824    -0.07260
C1937       C  0.15959787  0.40655790  0.05451229    -0.18500
C1938       C  0.16356834  0.44105120  0.05110526     0.09890
S1939       S  0.10700128  0.39988697  0.14164471    -0.33460
S1940       S  0.18609016  0.45586959  0.01544932    -0.33470
H1941       H  0.17392008  0.48867926  0.01651910     0.27900
H1942       H  0.12619421  0.37089347  0.14575929     0.27890
H1943       H  0.12459332  0.46539809  0.12198534     0.18490
H1944       H  0.16966499  0.39027207  0.03556612     0.18490
C1945       C  0.38757880  0.34135048  0.07373394    -0.07340
C1946       C  0.41347387  0.34911781  0.05163601    -0.18470
C1947       C  0.41104345  0.34322609  0.01743449     0.09860
C1948       C  0.38201706  0.32923398  0.00454257    -0.07260
C1949       C  0.35525993  0.32367399  0.02624588    -0.18500
C1950       C  0.35756450  0.32985529  0.06041718     0.09890
S1951       S  0.44714715  0.35005201  0.99228637    -0.33460
S1952       S  0.32154225  0.32224208  0.08553720    -0.33470
H1953       H  0.32680679  0.34916386  0.10710661     0.27900
H1954       H  0.42954512  0.36512918  0.96617391     0.27890
H1955       H  0.43649985  0.35848675  0.06122475     0.18490
H1956       H  0.33284386  0.31267625  0.01668892     0.18490
C1957       C  0.26309190  0.29180537  0.94371535    -0.07340
C1958       C  0.24145345  0.26552432  0.93959404    -0.18470
C1959       C  0.21647736  0.26060216  0.96222254     0.09860
C1960       C  0.21189652  0.28443340  0.98771433    -0.07260
C1961       C  0.23110981  0.31332855  0.98868637    -0.18500
C1962       C  0.25724014  0.31702975  0.96682901     0.09890
S1963       S  0.19517748  0.22116334  0.96063127    -0.33460
S1964       S  0.28349309  0.35285380  0.97056673    -0.33470
H1965       H  0.29828553  0.34987467  0.93906233     0.27900
H1966       H  0.20243503  0.21388299  0.92724713     0.27890
H1967       H  0.24716919  0.24618994  0.92168736     0.18490
H1968       H  0.22675254  0.33221593  0.00736661     0.18490
C1969       C  0.33807659  0.44685903  0.86697574    -0.07340
C1970       C  0.32897794  0.42464154  0.84144403    -0.18470
C1971       C  0.33871367  0.39132987  0.84153958     0.09860
C1972       C  0.35838662  0.37910593  0.86759230    -0.07260
C1973       C  0.36954953  0.40134205  0.89202588    -0.18500
C1974       C  0.35983042  0.43505261  0.89189061     0.09890
S1975       S  0.32434997  0.36538955  0.80809923    -0.33460
S1976       S  0.37418097  0.46084423  0.92521873    -0.33470
H1977       H  0.38700369  0.48513263  0.90365475     0.27900
H1978       H  0.35154567  0.34344391  0.80842646     0.27890
H1979       H  0.31325518  0.43294222  0.82128472     0.18490
H1980       H  0.38461272  0.39203894  0.91227545     0.18490
C1981       C  0.32742913  0.95445220  0.07888347    -0.07340
C1982       C  0.30959986  0.93229605  0.09923547    -0.18470
C1983       C  0.31754486  0.89846471  0.10131868     0.09860
C1984       C  0.34411055  0.88573573  0.08261169    -0.07260
C1985       C  0.36297561  0.90789760  0.06325442    -0.18500
C1986       C  0.35462689  0.94188358  0.06075936     0.09890
S1987       S  0.29322089  0.87303808  0.12886756    -0.33460
S1988       S  0.37793284  0.96705908  0.03225065    -0.33470
H1989       H  0.35057823  0.98534912  0.02057704     0.27900
H1990       H  0.31919046  0.85146758  0.13792701     0.27890
H1991       H  0.28904322  0.94144994  0.11383644     0.18490
H1992       H  0.38334816  0.89832424  0.04856465     0.18490
C1993       C  0.25701505  0.14758540  0.07900357    -0.07340
C1994       C  0.22783962  0.13772448  0.06266069    -0.18470
C1995       C  0.19994106  0.15895094  0.05981952     0.09860
C1996       C  0.19993672  0.19073418  0.07502217    -0.07260
C1997       C  0.22902399  0.19983269  0.09227265    -0.18500
C1998       C  0.25713539  0.17920536  0.09399564     0.09890
S1999       S  0.16501532  0.14356232  0.03724323    -0.33460
S2000       S  0.29268276  0.19494612  0.11566834    -0.33470
H2001       H  0.31623830  0.17700009  0.09713481     0.27900
H2002       H  0.16713908  0.16853078  0.01284055     0.27890
H2003       H  0.22622841  0.11273002  0.05293187     0.18490
H2004       H  0.23058448  0.22395372  0.10402371     0.18490
C2005       C  0.15860099  0.06948770  0.23571955    -0.07340
C2006       C  0.19058127  0.08173612  0.23866305    -0.18470
C2007       C  0.21332507  0.08012740  0.21248309     0.09860
C2008       C  0.20372002  0.06817105  0.18035441    -0.07260
C2009       C  0.17195407  0.05460887  0.17776217    -0.18500
C2010       C  0.14972425  0.05457106  0.20505084     0.09890
S2011       S  0.25457460  0.09242757  0.22363547    -0.33460
S2012       S  0.10993578  0.03593304  0.19990392    -0.33470
H2013       H  0.11362516  0.02649725  0.16650070     0.27900
H2014       H  0.26767987  0.06057684  0.21721150     0.27890
H2015       H  0.19805046  0.09282197  0.26196674     0.18490
H2016       H  0.16461192  0.04379867  0.15435685     0.18490
C2017       C  0.40067583  0.08192571  0.12347974    -0.07340
C2018       C  0.40821098  0.09692696  0.15371456    -0.18470
C2019       C  0.44039569  0.09825099  0.16553180     0.09860
C2020       C  0.46716477  0.08610444  0.14578780    -0.07260
C2021       C  0.45982346  0.07110276  0.11527517    -0.18500
C2022       C  0.42691457  0.06826982  0.10429577     0.09890
S2023       S  0.44448916  0.11446913  0.20712262    -0.33460
S2024       S  0.41994513  0.04521022  0.06683061    -0.33470
H2025       H  0.39614887  0.02480988  0.08181427     0.27900
H2026       H  0.46693053  0.08956864  0.21719443     0.27890
H2027       H  0.38851565  0.10690824  0.16908444     0.18490
H2028       H  0.47969954  0.06142537  0.10000419     0.18490
C2029       C  0.34232540  0.99812280  0.36772594    -0.07340
C2030       C  0.33204055  0.01869288  0.34128312    -0.18470
C2031       C  0.34015130  0.05247083  0.33966045     0.09860
C2032       C  0.35843412  0.06698982  0.36561110    -0.07260
C2033       C  0.37045791  0.04596928  0.39113791    -0.18500
C2034       C  0.36222544  0.01201234  0.39272884     0.09890
S2035       S  0.32629680  0.07550174  0.30379364    -0.33460
S2036       S  0.37538096  0.98867993  0.42864013    -0.33470
H2037       H  0.34651398  0.96969441  0.43171796     0.27900
H2038       H  0.35451033  0.09565864  0.30193527     0.27890
H2039       H  0.31659830  0.00850840  0.32194499     0.18490
H2040       H  0.38458551  0.05649090  0.41131256     0.18490
C2041       C  0.29310150  0.95427850  0.25024091    -0.07340
C2042       C  0.26599619  0.95024035  0.22949178    -0.18470
C2043       C  0.26451090  0.96631147  0.19933556     0.09860
C2044       C  0.29114769  0.98686713  0.18986150    -0.07260
C2045       C  0.31929301  0.98913195  0.21012414    -0.18500
C2046       C  0.32049880  0.97308885  0.24059057     0.09890
S2047       S  0.22642385  0.96195385  0.17661226    -0.33460
S2048       S  0.35705242  0.97835666  0.26572013    -0.33470
H2049       H  0.35042290  0.95451472  0.29029254     0.27900
H2050       H  0.24206172  0.94760826  0.14890913     0.27890
H2051       H  0.24531053  0.93511603  0.23736921     0.18490
H2052       H  0.33991659  0.00456345  0.20281956     0.18490
C2053       C  0.40073480  0.88048695  0.32081899    -0.07340
C2054       C  0.42433756  0.88503457  0.34620986    -0.18470
C2055       C  0.45826719  0.88908837  0.33919853     0.09860
C2056       C  0.46940667  0.88946565  0.30585364    -0.07260
C2057       C  0.44535627  0.88607854  0.28070405    -0.18500
C2058       C  0.41194743  0.88126434  0.28755422     0.09890
S2059       S  0.48576981  0.89318357  0.37388703    -0.33460
S2060       S  0.38563492  0.87440881  0.25216899    -0.33470
H2061       H  0.36882323  0.90482094  0.25615674     0.27900
H2062       H  0.50552592  0.86617939  0.36399496     0.27890
H2063       H  0.41640521  0.88516045  0.37190183     0.18490
H2064       H  0.45254498  0.88627393  0.25479585     0.18490
C2065       C  0.02555184  0.93798774  0.21993721    -0.07340
C2066       C  0.02758166  0.96004655  0.19251009    -0.18470
C2067       C  0.02806677  0.99476813  0.19654209     0.09860
C2068       C  0.02713571  0.00796788  0.22881645    -0.07260
C2069       C  0.01919327  0.98590764  0.25528574    -0.18500
C2070       C  0.01879050  0.95133648  0.25126660     0.09890
S2071       S  0.03223751  0.02031384  0.16010708    -0.33460
S2072       S  0.01407112  0.92571756  0.28763111    -0.33470
H2073       H  0.99802859  0.89974336  0.27103629     0.27900
H2074       H  0.01076908  0.04531976  0.17181895     0.27890
H2075       H  0.03153805  0.95011198  0.16785307     0.18490
H2076       H  0.01602011  0.99538384  0.28024082     0.18490
C2077       C  0.90393192  0.88002380  0.12011687    -0.07340
C2078       C  0.91592222  0.84802042  0.12575957    -0.18470
C2079       C  0.94933440  0.84213260  0.13178410     0.09860
C2080       C  0.97202362  0.86902778  0.13400476    -0.07260
C2081       C  0.96015206  0.90114792  0.12708830    -0.18500
C2082       C  0.92649025  0.90691579  0.12027154     0.09890
S2083       S  0.96107019  0.79918682  0.13550753    -0.33460
S2084       S  0.91362805  0.94946738  0.11471170    -0.33470
H2085       H  0.88364067  0.94624450  0.13201600     0.27900
H2086       H  0.99038368  0.80461606  0.11770844     0.27890
H2087       H  0.89911289  0.82717024  0.12483326     0.18490
H2088       H  0.97666100  0.92213305  0.12902753     0.18490
C2089       C  0.16616108  0.88230160  0.21800455    -0.07340
C2090       C  0.19209186  0.85947127  0.22296663    -0.18470
C2091       C  0.21074815  0.85875332  0.25211134     0.09860
C2092       C  0.20588846  0.88343995  0.27687747    -0.07260
C2093       C  0.18158786  0.90810828  0.27071642    -0.18500
C2094       C  0.16163713  0.90761634  0.24195043     0.09890
S2095       S  0.23927840  0.82434884  0.25584576    -0.33460
S2096       S  0.12990004  0.93890733  0.23809991    -0.33470
H2097       H  0.13370595  0.94266192  0.20360580     0.27900
H2098       H  0.22676124  0.81429393  0.28689618     0.27890
H2099       H  0.19569144  0.83955684  0.20517951     0.18490
H2100       H  0.17795357  0.92797835  0.28848567     0.18490
C2101       C  0.10905977  0.83670080  0.07517745    -0.07340
C2102       C  0.12281138  0.80546579  0.06820194    -0.18470
C2103       C  0.12196757  0.79182780  0.03638728     0.09860
C2104       C  0.10719732  0.80983559  0.00966796    -0.07260
C2105       C  0.09490937  0.84193762  0.01627683    -0.18500
C2106       C  0.09590164  0.85559762  0.04841093     0.09890
S2107       S  0.14082434  0.75129006  0.03244509    -0.33460
S2108       S  0.08059864  0.89748203  0.05322134    -0.33470
H2109       H  0.10511483  0.90672802  0.07608181     0.27900
H2110       H  0.11039242  0.73571778  0.02639356     0.27890
H2111       H  0.13317628  0.79058007  0.08812704     0.18490
H2112       H  0.08444353  0.85662329  0.99627654     0.18490
C2113       C  0.92642149  0.45514995  0.22794616    -0.07340
C2114       C  0.95729188  0.46734608  0.21846604    -0.18470
C2115       C  0.96462332  0.50109636  0.22204183     0.09860
C2116       C  0.94054306  0.52333014  0.23488434    -0.07260
C2117       C  0.91032101  0.51103886  0.24540634    -0.18500
C2118       C  0.90282063  0.47754639  0.24155762     0.09890
S2119       S  0.00437103  0.51523425  0.20774390    -0.33460
S2120       S  0.86300754  0.46344655  0.25517859    -0.33470
H2121       H  0.85197860  0.49333662  0.26963458     0.27900
H2122       H  0.00361265  0.54549391  0.22520192     0.27890
H2123       H  0.97639889  0.45028283  0.21014898     0.18490
H2124       H  0.89135763  0.52834676  0.25354527     0.18490
C2125       C  0.02563349  0.59642943  0.15005980    -0.07340
C2126       C  0.05025982  0.60472529  0.17345690    -0.18470
C2127       C  0.08379650  0.60711229  0.16502119     0.09860
C2128       C  0.09390057  0.60059251  0.13209378    -0.07260
C2129       C  0.06932847  0.59334300  0.10836995    -0.18500
C2130       C  0.03572497  0.59107236  0.11686325     0.09890
S2131       S  0.11307132  0.61754970  0.19715982    -0.33460
S2132       S  0.00740880  0.58096615  0.08410145    -0.33470
H2133       H  0.99460492  0.55327586  0.10106763     0.27900
H2134       H  0.09085129  0.61860628  0.22400231     0.27890
H2135       H  0.04332198  0.60944706  0.19894191     0.18490
H2136       H  0.07645395  0.58828070  0.08293032     0.18490
C2137       C  0.99325002  0.69384215  0.15687739    -0.07340
C2138       C  0.02205673  0.69019126  0.17609872    -0.18470
C2139       C  0.04671547  0.71376388  0.17428843     0.09860
C2140       C  0.04244312  0.74045132  0.15244425    -0.07260
C2141       C  0.01886266  0.73883655  0.12722828    -0.18500
C2142       C  0.99373818  0.71534903  0.12915494     0.09890
S2143       S  0.08102894  0.71243316  0.20287676    -0.33460
S2144       S  0.96244069  0.71582803  0.09743209    -0.33470
H2145       H  0.96033441  0.68094075  0.09575323     0.27900
H2146       H  0.07171334  0.68336746  0.21983390     0.27890
H2147       H  0.02369520  0.67122478  0.19511106     0.18490
H2148       H  0.01819127  0.75768544  0.10808357     0.18490
C2149       C  0.89212792  0.62747554  0.06869395    -0.07340
C2150       C  0.92060139  0.62182269  0.04935600    -0.18470
C2151       C  0.92122701  0.62933287  0.01539108     0.09860
C2152       C  0.89226167  0.64128834  0.00007188    -0.07260
C2153       C  0.86314497  0.64420770  0.01887530    -0.18500
C2154       C  0.86280343  0.63791320  0.05302392     0.09890
S2155       S  0.96006297  0.62491878  0.99376617    -0.33460
S2156       S  0.82451028  0.64409649  0.07514528    -0.33470
H2157       H  0.83063595  0.62000710  0.09977089     0.27900
H2158       H  0.95511730  0.65045767  0.97046715     0.27890
H2159       H  0.94320180  0.61364089  0.06126705     0.18490
H2160       H  0.84069149  0.65256665  0.00695666     0.18490
C2161       C  0.89878743  0.69844885  0.26482608    -0.07340
C2162       C  0.88904933  0.73080248  0.25477872    -0.18470
C2163       C  0.88395814  0.75655741  0.27767231     0.09860
C2164       C  0.88896368  0.75040774  0.31162170    -0.07260
C2165       C  0.89839891  0.71830504  0.32187011    -0.18500
C2166       C  0.90338806  0.69243689  0.29915506     0.09890
S2167       S  0.86940296  0.79612081  0.26223088    -0.33460
S2168       S  0.91403424  0.65231626  0.31608097    -0.33470
H2169       H  0.88878927  0.63581593  0.29882254     0.27900
H2170       H  0.88061838  0.81526070  0.28904856     0.27890
H2171       H  0.88522064  0.73631655  0.22873543     0.18490
H2172       H  0.90041473  0.71291892  0.34819348     0.18490
C2173       C  0.75278872  0.51598242  0.43859254    -0.07340
C2174       C  0.77968102  0.53435214  0.44852415    -0.18470
C2175       C  0.78500700  0.54106514  0.48206549     0.09860
C2176       C  0.76205236  0.52936685  0.50680313    -0.07260
C2177       C  0.73797381  0.50673639  0.49678161    -0.18500
C2178       C  0.73360118  0.49943853  0.46304465     0.09890
S2179       S  0.82090389  0.56607607  0.49052262    -0.33460
S2180       S  0.70107255  0.47111925  0.45209234    -0.33470
H2181       H  0.71402177  0.46350801  0.42056093     0.27900
H2182       H  0.83829384  0.55917115  0.46101902     0.27890
H2183       H  0.79433951  0.54677460  0.42975849     0.18490
H2184       H  0.72165050  0.49573583  0.51501513     0.18490
C2185       C  0.65857461  0.45494305  0.36542783    -0.07340
C2186       C  0.67424593  0.43189163  0.34405326    -0.18470
C2187       C  0.66664636  0.39830906  0.34443697     0.09860
C2188       C  0.64389222  0.38653008  0.36793432    -0.07260
C2189       C  0.62703447  0.40948886  0.38842877    -0.18500
C2190       C  0.63370923  0.44356975  0.38699509     0.09890
S2191       S  0.68648135  0.37218515  0.31386520    -0.33460
S2192       S  0.61149013  0.47061597  0.41475073    -0.33470
H2193       H  0.60083813  0.49191569  0.38910095     0.27900
H2194       H  0.65832476  0.35279270  0.30782018     0.27890
H2195       H  0.69269966  0.44011984  0.32639340     0.18490
H2196       H  0.60912949  0.40077083  0.40640835     0.18490
C2197       C  0.78776598  0.57982189  0.27171402    -0.07340
C2198       C  0.79941541  0.55391626  0.25105005    -0.18470
C2199       C  0.81967245  0.56013539  0.22299143     0.09860
C2200       C  0.82962485  0.59305143  0.21532183    -0.07260
C2201       C  0.81781460  0.61869083  0.23639234    -0.18500
C2202       C  0.79756121  0.61253437  0.26404017     0.09890
S2203       S  0.83043619  0.52526430  0.19714409    -0.33460
S2204       S  0.78596087  0.64769376  0.28936343    -0.33470
H2205       H  0.78466140  0.62985668  0.31937913     0.27900
H2206       H  0.82535856  0.54260404  0.16718934     0.27890
H2207       H  0.79132283  0.52873399  0.25581567     0.18490
H2208       H  0.82525725  0.64415474  0.23216656     0.18490
C2209       C  0.73830147  0.64166617  0.39428064    -0.07340
C2210       C  0.77155617  0.63135575  0.39145672    -0.18470
C2211       C  0.79777124  0.65406934  0.39397879     0.09860
C2212       C  0.79079253  0.68792354  0.40028160    -0.07260
C2213       C  0.75747271  0.69740352  0.40554100    -0.18500
C2214       C  0.73142101  0.67491031  0.40235652     0.09890
S2215       S  0.83888987  0.63892989  0.38570535    -0.33460
S2216       S  0.68983355  0.69058180  0.40671849    -0.33470
H2217       H  0.67543340  0.65995324  0.41498321     0.27900
H2218       H  0.84758684  0.66587074  0.36522263     0.27890
H2219       H  0.77701761  0.60588139  0.38446365     0.18490
H2220       H  0.75139524  0.72303400  0.41128108     0.18490
C2221       C  0.52227074  0.59372621  0.32419924    -0.07340
C2222       C  0.54514781  0.57681784  0.30424630    -0.18470
C2223       C  0.57859306  0.57615078  0.31141113     0.09860
C2224       C  0.59104656  0.59328409  0.33918631    -0.07260
C2225       C  0.56827321  0.60970836  0.36019407    -0.18500
C2226       C  0.53405092  0.61079105  0.35252194     0.09890
S2227       S  0.60368393  0.55121808  0.28447125    -0.33460
S2228       S  0.50741933  0.63581787  0.37837606    -0.33470
H2229       H  0.48429126  0.64409804  0.35367681     0.27900
H2230       H  0.62158097  0.53792921  0.31116496     0.27890
H2231       H  0.53691056  0.56425758  0.28197321     0.18490
H2232       H  0.57725452  0.62263190  0.38190687     0.18490
C2233       C  0.74909683  0.43516941  0.00710240    -0.07340
C2234       C  0.74317504  0.46535971  0.99030564    -0.18470
C2235       C  0.73723040  0.46601766  0.95580206     0.09860
C2236       C  0.73525810  0.43585983  0.93791107    -0.07260
C2237       C  0.73951938  0.40597372  0.95563783    -0.18500
C2238       C  0.74893946  0.40564829  0.98861929     0.09890
S2239       S  0.73395217  0.50587247  0.93557401    -0.33460
S2240       S  0.75989528  0.36622890  0.00655997    -0.33470
H2241       H  0.78610732  0.38004040  0.02456298     0.27900
H2242       H  0.71871832  0.49396879  0.90664294     0.27890
H2243       H  0.74160209  0.48828578  0.00432181     0.18490
H2244       H  0.74182696  0.38267404  0.94251140     0.18490
C2245       C  0.63451813  0.58075033  0.08013239    -0.07340
C2246       C  0.64067285  0.56506776  0.04945122    -0.18470
C2247       C  0.65183871  0.53206424  0.04764366     0.09860
C2248       C  0.65557034  0.51370024  0.07724583    -0.07260
C2249       C  0.64656125  0.52847037  0.10758526    -0.18500
C2250       C  0.63672625  0.56187829  0.10949321     0.09890
S2251       S  0.66233376  0.51615965  0.00699720    -0.33460
S2252       S  0.62760318  0.57887061  0.14989816    -0.33470
H2253       H  0.60379273  0.60198448  0.13891399     0.27900
H2254       H  0.67553797  0.48522301  0.01619117     0.27890
H2255       H  0.63842029  0.57925425  0.02665020     0.18490
H2256       H  0.64833688  0.51404414  0.13022496     0.18490
C2257       C  0.78764166  0.40155553  0.18398246    -0.07340
C2258       C  0.80131072  0.36958624  0.18258413    -0.18470
C2259       C  0.81899378  0.35573800  0.20920960     0.09860
C2260       C  0.82498166  0.37461122  0.23857945    -0.07260
C2261       C  0.80976259  0.40607568  0.24059703    -0.18500
C2262       C  0.79105853  0.41941367  0.21407915     0.09890
S2263       S  0.83095993  0.31290244  0.20390521    -0.33460
S2264       S  0.77111487  0.45902080  0.22030380    -0.33470
H2265       H  0.73941147  0.44670195  0.21391346     0.27900
H2266       H  0.81566196  0.30263782  0.23356336     0.27890
H2267       H  0.79607484  0.35402150  0.16142205     0.18490
H2268       H  0.81175707  0.42010056  0.26336972     0.18490
C2269       C  0.67472500  0.51717951  0.24903108    -0.07340
C2270       C  0.68690299  0.53207160  0.22039585    -0.18470
C2271       C  0.68865634  0.51429140  0.19112256     0.09860
C2272       C  0.67614773  0.48136040  0.19073230    -0.07260
C2273       C  0.65793813  0.46947833  0.21768934    -0.18500
C2274       C  0.65785860  0.48669813  0.24739507     0.09890
S2275       S  0.71099488  0.53306170  0.15691951    -0.33460
S2276       S  0.63681027  0.46740769  0.28161689    -0.33470
H2277       H  0.64678895  0.48981086  0.30575214     0.27900
H2278       H  0.70992304  0.56602510  0.16851731     0.27890
H2279       H  0.69900632  0.55597391  0.22206743     0.18490
H2280       H  0.64704039  0.44495195  0.21702812     0.18490
C2281       C  0.59349183  0.38263575  0.12733988    -0.07340
C2282       C  0.56857459  0.38718698  0.10310978    -0.18470
C2283       C  0.53472106  0.38631329  0.11142067     0.09860
C2284       C  0.52526440  0.38256686  0.14488964    -0.07260
C2285       C  0.55031365  0.38054448  0.16909778    -0.18500
C2286       C  0.58371314  0.37915740  0.16081124     0.09890
S2287       S  0.50500269  0.38860699  0.07842960    -0.33460
S2288       S  0.61230297  0.37339535  0.19459245    -0.33470
H2289       H  0.62445179  0.34311300  0.18186795     0.27900
H2290       H  0.48561084  0.36280855  0.09140932     0.27890
H2291       H  0.57548309  0.39053468  0.07733484     0.18490
H2292       H  0.54371326  0.37815763  0.19509168     0.18490
C2293       C  0.95718907  0.24173808  0.01945592    -0.07340
C2294       C  0.96683490  0.26099030  0.04636687    -0.18470
C2295       C  0.99918914  0.25985699  0.05772143     0.09860
C2296       C  0.02365838  0.24183174  0.03990620    -0.07260
C2297       C  0.01464373  0.22444819  0.01151289    -0.18500
C2298       C  0.98159846  0.22366895  0.00144966     0.09890
S2299       S  0.00756421  0.28102484  0.09612349    -0.33460
S2300       S  0.97047510  0.19659229  0.96769708    -0.33470
H2301       H  0.00269856  0.19001010  0.95627962     0.27900
H2302       H  0.02939935  0.25623221  0.10741418     0.27890
H2303       H  0.94836408  0.27347420  0.06132428     0.18490
H2304       H  0.03355336  0.21197243  0.99703913     0.18490
C2305       C  0.89622723  0.13020145  0.87469040    -0.07340
C2306       C  0.89613389  0.16421406  0.88158403    -0.18470
C2307       C  0.89682753  0.17612730  0.91394758     0.09860
C2308       C  0.89709228  0.15337393  0.94114160    -0.07260
C2309       C  0.89819593  0.11916850  0.93438226    -0.18500
C2310       C  0.89738355  0.10734362  0.90154624     0.09890
S2311       S  0.89609974  0.22102423  0.91750711    -0.33460
S2312       S  0.89572896  0.06298278  0.89580620    -0.33470
H2313       H  0.87318142  0.06450397  0.86928769     0.27900
H2314       H  0.91207162  0.22356096  0.94810117     0.27890
H2315       H  0.89615848  0.18203433  0.86135190     0.18490
H2316       H  0.89767006  0.10153834  0.95474458     0.18490
C2317       C  0.89683228  0.22604149  0.13437811    -0.07340
C2318       C  0.90623844  0.21572829  0.16616398    -0.18470
C2319       C  0.91190030  0.23899495  0.19159913     0.09860
C2320       C  0.90907577  0.27388378  0.18521821    -0.07260
C2321       C  0.90179207  0.28403924  0.15301936    -0.18500
C2322       C  0.89511314  0.26093433  0.12804812     0.09890
S2323       S  0.92209785  0.22220260  0.23175960    -0.33460
S2324       S  0.88335802  0.27871370  0.08907908    -0.33470
H2325       H  0.89025469  0.24987457  0.07184896     0.27900
H2326       H  0.89013851  0.22818526  0.24426630     0.27890
H2327       H  0.90734767  0.18938924  0.17178115     0.18490
H2328       H  0.89960274  0.31036261  0.14756536     0.18490
C2329       C  0.73767545  0.32307254  0.07825546    -0.07340
C2330       C  0.72660732  0.29312031  0.06461152    -0.18470
C2331       C  0.74917202  0.26787250  0.05542964     0.09860
C2332       C  0.78371346  0.27269943  0.05918474    -0.07260
C2333       C  0.79462441  0.30313322  0.07104733    -0.18500
C2334       C  0.77237631  0.32796663  0.08065613     0.09890
S2335       S  0.73270449  0.23046626  0.03774306    -0.33460
S2336       S  0.79079513  0.36600612  0.09378020    -0.33470
H2337       H  0.76491040  0.38530000  0.08148631     0.27900
H2338       H  0.73928837  0.21153585  0.06641607     0.27890
H2339       H  0.70034850  0.28896312  0.06196625     0.18490
H2340       H  0.82082503  0.30755930  0.07338988     0.18490
C2341       C  0.82738277  0.01354754  0.07214710    -0.07340
C2342       C  0.86079220  0.02076941  0.07750731    -0.18470
C2343       C  0.87161744  0.05379393  0.08014587     0.09860
C2344       C  0.84866971  0.08025311  0.07679660    -0.07260
C2345       C  0.81567480  0.07299682  0.06975297    -0.18500
C2346       C  0.80492136  0.04014296  0.06688691     0.09890
S2347       S  0.91451834  0.06053203  0.08971566    -0.33460
S2348       S  0.76238773  0.03256291  0.05587400    -0.33470
H2349       H  0.75510909  0.06494132  0.04462753     0.27900
H2350       H  0.90963053  0.09065625  0.10676327     0.27890
H2351       H  0.87812336  0.00069495  0.08171230     0.18490
H2352       H  0.79835891  0.09323706  0.06574568     0.18490
C2353       C  0.52468800  0.23076050  0.92453003    -0.07340
C2354       C  0.51367991  0.23514245  0.95732659    -0.18470
C2355       C  0.48000499  0.23208696  0.96550891     0.09860
C2356       C  0.45675533  0.22335340  0.94081025    -0.07260
C2357       C  0.46824492  0.21801275  0.90856846    -0.18500
C2358       C  0.50115566  0.22274013  0.89993168     0.09890
S2359       S  0.46753255  0.24141133  0.00748126    -0.33460
S2360       S  0.51278131  0.21769034  0.85687121    -0.33470
H2361       H  0.48286966  0.20441665  0.84536854     0.27900
H2362       H  0.43608351  0.22695072  0.00522052     0.27890
H2363       H  0.53148551  0.23939916  0.97686279     0.18490
H2364       H  0.45086950  0.21449905  0.88902802     0.18490
C2365       C  0.59717869  0.13756063  0.99751888    -0.07340
C2366       C  0.61410019  0.15727198  0.02085722    -0.18470
C2367       C  0.61809850  0.14804880  0.05374712     0.09860
C2368       C  0.60226374  0.11933327  0.06577941    -0.07260
C2369       C  0.58510945  0.09918116  0.04276299    -0.18500
C2370       C  0.58268599  0.10783376  0.00878327     0.09890
S2371       S  0.64414165  0.17467899  0.07829276    -0.33460
S2372       S  0.55908290  0.08145249  0.98189941    -0.33470
H2373       H  0.54419420  0.10777102  0.96426807     0.27900
H2374       H  0.66451953  0.14823422  0.08891181     0.27890
H2375       H  0.62628944  0.17990844  0.01314605     0.18490
H2376       H  0.57258538  0.07709502  0.05143453     0.18490
C2377       C  0.77532313  0.15690244  0.98897325    -0.07340
C2378       C  0.74606014  0.14584964  0.00352259    -0.18470
C2379       C  0.71671520  0.14774278  0.98570280     0.09860
C2380       C  0.71684529  0.16348203  0.95439215    -0.07260
C2381       C  0.74700576  0.16789195  0.93806552    -0.18500
C2382       C  0.77639689  0.16359572  0.95475744     0.09890
S2383       S  0.68178385  0.12672627  0.00272461    -0.33460
S2384       S  0.81465910  0.16941954  0.93266531    -0.33470
H2385       H  0.80132544  0.17202325  0.90053020     0.27900
H2386       H  0.66406689  0.12430853  0.97291523     0.27890
H2387       H  0.74562982  0.13783332  0.02922470     0.18490
H2388       H  0.74781598  0.17641997  0.91274887     0.18490
C2389       C  0.64496573  0.07477956  0.88073206    -0.07340
C2390       C  0.62025623  0.05076455  0.87556627    -0.18470
C2391       C  0.62717131  0.01646046  0.87813185     0.09860
C2392       C  0.65923272  0.00568430  0.88716159    -0.07260
C2393       C  0.68278053  0.02969260  0.89516598    -0.18500
C2394       C  0.67644598  0.06353774  0.89170960     0.09890
S2395       S  0.59520526  0.98798114  0.86638890    -0.33460
S2396       S  0.71050490  0.09033031  0.90128835    -0.33470
H2397       H  0.69199820  0.10671016  0.92570960     0.27900
H2398       H  0.61544640  0.96886368  0.84526721     0.27890
H2399       H  0.59578729  0.05861138  0.86791423     0.18490
H2400       H  0.70742677  0.02186475  0.90230225     0.18490
C2401       C  0.69579999  0.27030829  0.88320797    -0.07340
C2402       C  0.69169211  0.30223890  0.89635972    -0.18470
C2403       C  0.71561647  0.32689764  0.89124337     0.09860
C2404       C  0.74735951  0.31847423  0.87842083    -0.07260
C2405       C  0.75161119  0.28625640  0.86597711    -0.18500
C2406       C  0.72597606  0.26301676  0.86646618     0.09890
S2407       S  0.70048949  0.36873564  0.89336672    -0.33460
S2408       S  0.73301433  0.22590035  0.84267076    -0.33470
H2409       H  0.72959686  0.20552366  0.87033527     0.27900
H2410       H  0.71512881  0.37769614  0.86318926     0.27890
H2411       H  0.66816625  0.30901249  0.90738582     0.18490
H2412       H  0.77436100  0.27998046  0.85314355     0.18490
C2413       C  0.55033162  0.44583545  0.72307888    -0.07340
C2414       C  0.57900241  0.46272090  0.71315288    -0.18470
C2415       C  0.57914202  0.49700422  0.70810095     0.09860
C2416       C  0.55089841  0.51601543  0.71540877    -0.07260
C2417       C  0.52196252  0.49942426  0.72518695    -0.18500
C2418       C  0.52131994  0.46465529  0.72866750     0.09890
S2419       S  0.61629091  0.51554107  0.69228954    -0.33460
S2420       S  0.48265820  0.44548279  0.73947526    -0.33470
H2421       H  0.49648214  0.41558701  0.75134158     0.27900
H2422       H  0.60187437  0.54620507  0.68338491     0.27890
H2423       H  0.60086860  0.44890433  0.70626723     0.18490
H2424       H  0.50037474  0.51380537  0.73236878     0.18490
C2425       C  0.40004805  0.37337818  0.62025842    -0.07340
C2426       C  0.41295227  0.34293715  0.63150788    -0.18470
C2427       C  0.44684751  0.33885921  0.63819514     0.09860
C2428       C  0.46898985  0.36573359  0.63386150    -0.07260
C2429       C  0.45629000  0.39594251  0.62197026    -0.18500
C2430       C  0.42232112  0.40028974  0.61588602     0.09890
S2431       S  0.46039494  0.29845070  0.65191908    -0.33460
S2432       S  0.40881757  0.44189961  0.60591248    -0.33470
H2433       H  0.38112669  0.44127039  0.62706414     0.27900
H2434       H  0.49130750  0.30055116  0.63626658     0.27890
H2435       H  0.39655533  0.32203957  0.63496005     0.18490
H2436       H  0.47257688  0.41710387  0.61974604     0.18490
C2437       C  0.60104235  0.27506708  0.76002379    -0.07340
C2438       C  0.59009938  0.27953515  0.79265987    -0.18470
C2439       C  0.59012537  0.25331386  0.81590878     0.09860
C2440       C  0.59923931  0.22046428  0.80639940    -0.07260
C2441       C  0.61054364  0.21601189  0.77370657    -0.18500
C2442       C  0.61187419  0.24258724  0.75078605     0.09890
S2443       S  0.58251358  0.26398728  0.85833306    -0.33460
S2444       S  0.62636031  0.23268123  0.70972307    -0.33470
H2445       H  0.65183035  0.25627434  0.71077388     0.27900
H2446       H  0.56856303  0.29564628  0.85291712     0.27890
H2447       H  0.58215199  0.30414274  0.80018617     0.18490
H2448       H  0.61903104  0.19160268  0.76604225     0.18490
C2449       C  0.66002804  0.38789766  0.70547238    -0.07340
C2450       C  0.64925362  0.40125490  0.73603157    -0.18470
C2451       C  0.67053637  0.40428214  0.76362500     0.09860
C2452       C  0.70400397  0.39389419  0.76120306    -0.07260
C2453       C  0.71465179  0.38085952  0.73037794    -0.18500
C2454       C  0.69345443  0.37794101  0.70292520     0.09890
S2455       S  0.65275804  0.41987964  0.80153876    -0.33460
S2456       S  0.71082901  0.36139000  0.66513488    -0.33470
H2457       H  0.69012724  0.37966739  0.64371162     0.27900
H2458       H  0.66658518  0.39451614  0.82132542     0.27890
H2459       H  0.62339619  0.40734353  0.73930774     0.18490
H2460       H  0.74011215  0.37309273  0.72723121     0.18490
C2461       C  0.59146180  0.33880397  0.56376902    -0.07340
C2462       C  0.61756695  0.34858558  0.54325946    -0.18470
C2463       C  0.61731553  0.34115859  0.50925372     0.09860
C2464       C  0.59114752  0.32230101  0.49582184    -0.07260
C2465       C  0.56409875  0.31457013  0.51590360    -0.18500
C2466       C  0.56360196  0.32371567  0.54935639     0.09890
S2467       S  0.65159614  0.35547866  0.48467151    -0.33460
S2468       S  0.52622874  0.31740317  0.57229119    -0.33470
H2469       H  0.51792729  0.35137188  0.57055810     0.27900
H2470       H  0.63535172  0.35498608  0.45391853     0.27890
H2471       H  0.63852554  0.36134145  0.55387474     0.18490
H2472       H  0.54365415  0.30068233  0.50569241     0.18490
C2473       C  0.44526449  0.93187844  0.71397516    -0.07340
C2474       C  0.46679360  0.95336653  0.73091846    -0.18470
C2475       C  0.46038854  0.98760022  0.73307501     0.09860
C2476       C  0.43193597  0.00084764  0.71769913    -0.07260
C2477       C  0.41157228  0.97934400  0.69933762    -0.18500
C2478       C  0.41868989  0.94560663  0.69634284     0.09890
S2479       S  0.48849892  0.01249897  0.75688165    -0.33460
S2480       S  0.39133769  0.92041598  0.67196947    -0.33470
H2481       H  0.41205222  0.89220690  0.67106236     0.27900
H2482       H  0.49123423  0.03769122  0.73299454     0.27890
H2483       H  0.48675171  0.94287895  0.74558859     0.18490
H2484       H  0.39047857  0.98927923  0.68593738     0.18490
C2485       C  0.58240255  0.08555783  0.62597197    -0.07340
C2486       C  0.57042128  0.05664285  0.64124407    -0.18470
C2487       C  0.53674349  0.05241847  0.64768307     0.09860
C2488       C  0.51396122  0.07746958  0.63840752    -0.07260
C2489       C  0.52574003  0.10604482  0.62218043    -0.18500
C2490       C  0.55968120  0.11046532  0.61601042     0.09890
S2491       S  0.52442279  0.01459282  0.66828567    -0.33460
S2492       S  0.57204960  0.14804967  0.59503730    -0.33470
H2493       H  0.60473909  0.14871115  0.60646087     0.27900
H2494       H  0.49157750  0.01479613  0.65701157     0.27890
H2495       H  0.58758022  0.03703252  0.64822164     0.18490
H2496       H  0.50857775  0.12582199  0.61582667     0.18490
C2497       C  0.49567755  0.18703138  0.68123124    -0.07340
C2498       C  0.50383876  0.19915138  0.64976786    -0.18470
C2499       C  0.52305152  0.22734530  0.64673397     0.09860
C2500       C  0.53171472  0.24447333  0.67577017    -0.07260
C2501       C  0.52623647  0.23065949  0.70702717    -0.18500
C2502       C  0.50908122  0.20139359  0.71011969     0.09890
S2503       S  0.53327646  0.24129707  0.60566171    -0.33460
S2504       S  0.50139237  0.18661902  0.75170653    -0.33470
H2505       H  0.51597349  0.15535947  0.74565193     0.27900
H2506       H  0.56632280  0.24850697  0.61306719     0.27890
H2507       H  0.49426334  0.18729736  0.62767109     0.18490
H2508       H  0.53443436  0.24341082  0.72923380     0.18490
C2509       C  0.38848282  0.14919381  0.50185769    -0.07340
C2510       C  0.37368421  0.17025718  0.52580214    -0.18470
C2511       C  0.37370900  0.16259981  0.55959733     0.09860
C2512       C  0.38964364  0.13346994  0.57070549    -0.07260
C2513       C  0.40372070  0.11179639  0.54709739    -0.18500
C2514       C  0.40299270  0.11907489  0.51296611     0.09890
S2515       S  0.35194894  0.19059131  0.58705505    -0.33460
S2516       S  0.42151868  0.08925750  0.48530986    -0.33470
H2517       H  0.39219079  0.08506273  0.46714501     0.27900
H2518       H  0.33978946  0.16546983  0.60804767     0.27890
H2519       H  0.36135800  0.19302967  0.51829478     0.18490
H2520       H  0.41591243  0.08918916  0.55535037     0.18490
C2521       C  0.41179175  0.18080858  0.77237455    -0.07340
C2522       C  0.41108791  0.17135446  0.80582459    -0.18470
C2523       C  0.40792490  0.19509282  0.83138355     0.09860
C2524       C  0.40824735  0.22985803  0.82387519    -0.07260
C2525       C  0.41033854  0.23915472  0.79058560    -0.18500
C2526       C  0.41174516  0.21565305  0.76506621     0.09890
S2527       S  0.39943501  0.17817753  0.87187023    -0.33460
S2528       S  0.41289014  0.23297853  0.72380080    -0.33470
H2529       H  0.44161573  0.21554090  0.71548246     0.27900
H2530       H  0.38468556  0.20690940  0.88402009     0.27890
H2531       H  0.41069236  0.14514180  0.81203644     0.18490
H2532       H  0.40940546  0.26535382  0.78420682     0.18490
C2533       C  0.25071704  0.04195677  0.99663744    -0.07340
C2534       C  0.23825421  0.01204107  0.98430474    -0.18470
C2535       C  0.24157822  0.00388617  0.95055435     0.09860
C2536       C  0.25696922  0.02623650  0.92821708    -0.07260
C2537       C  0.27243825  0.05416588  0.94114623    -0.18500
C2538       C  0.26839040  0.06289200  0.97436898     0.09890
S2539       S  0.22313036  0.96585123  0.93638620    -0.33460
S2540       S  0.28687097  0.10143338  0.98689878    -0.33470
H2541       H  0.26044629  0.10978954  0.00775387     0.27900
H2542       H  0.23957921  0.96526647  0.90560484     0.27890
H2543       H  0.22730695  0.99425618  0.00122727     0.18490
H2544       H  0.28358176  0.07194837  0.92430362     0.18490
C2545       C  0.14391684  0.88257896  0.87112481    -0.07340
C2546       C  0.12100081  0.90769993  0.88014797    -0.18470
C2547       C  0.12933862  0.94168500  0.87953205     0.09860
C2548       C  0.16165326  0.95110572  0.87052690    -0.07260
C2549       C  0.18451285  0.92584448  0.86225246    -0.18500
C2550       C  0.17621014  0.89228491  0.86237374     0.09890
S2551       S  0.09744031  0.97151541  0.88916713    -0.33460
S2552       S  0.20889442  0.86325303  0.85299560    -0.33470
H2553       H  0.20971117  0.85133111  0.88580171     0.27900
H2554       H  0.10637447  0.99392022  0.86402229     0.27890
H2555       H  0.09617270  0.90086848  0.88735708     0.18490
H2556       H  0.20963136  0.93226601  0.85563570     0.18490
C2557       C  0.01804607  0.07526976  0.81993306    -0.07340
C2558       C  0.02981218  0.10455549  0.83496019    -0.18470
C2559       C  0.06307798  0.10813707  0.84390563     0.09860
C2560       C  0.08525884  0.08170522  0.83812232    -0.07260
C2561       C  0.07316237  0.05175642  0.82498979    -0.18500
C2562       C  0.03998674  0.04829586  0.81577852     0.09890
S2563       S  0.07587274  0.14744906  0.86087160    -0.33460
S2564       S  0.02800788  0.01038703  0.79548427    -0.33470
H2565       H  0.99543262  0.01084335  0.80749826     0.27900
H2566       H  0.10291489  0.13507718  0.87902621     0.27890
H2567       H  0.01340689  0.12583221  0.83736681     0.18490
H2568       H  0.09010559  0.03134289  0.82040062     0.18490
C2569       C  0.29317479  0.18514080  0.88769581    -0.07340
C2570       C  0.27296787  0.17305390  0.91377665    -0.18470
C2571       C  0.24485026  0.15305380  0.90773063     0.09860
C2572       C  0.23555211  0.14540611  0.87472399    -0.07260
C2573       C  0.25609900  0.15764782  0.84902404    -0.18500
C2574       C  0.28447520  0.17627271  0.85492858     0.09890
S2575       S  0.22118947  0.13943915  0.94293830    -0.33460
S2576       S  0.30858510  0.18723251  0.81885858    -0.33470
H2577       H  0.33891223  0.18153071  0.83463132     0.27900
H2578       H  0.22429616  0.10568845  0.93490482     0.27890
H2579       H  0.27851191  0.17997556  0.93912720     0.18490
H2580       H  0.25078585  0.15198843  0.82332472     0.18490
C2581       C  0.32025955  0.09268365  0.70815879    -0.07340
C2582       C  0.31296418  0.05950071  0.71670267    -0.18470
C2583       C  0.29004029  0.05162459  0.74178967     0.09860
C2584       C  0.27347421  0.07719112  0.75936552    -0.07260
C2585       C  0.27949100  0.11018520  0.75009540    -0.18500
C2586       C  0.30222368  0.11825998  0.72493990     0.09890
S2587       S  0.28138161  0.00840920  0.74886485    -0.33460
S2588       S  0.30654588  0.16193740  0.71605053    -0.33470
H2589       H  0.30386013  0.15763009  0.68148750     0.27900
H2590       H  0.28995320  0.00963067  0.78263337     0.27890
H2591       H  0.32584880  0.03929778  0.70439747     0.18490
H2592       H  0.26619093  0.13001559  0.76259115     0.18490
C2593       C  0.25971421  0.92301840  0.51656576    -0.07340
C2594       C  0.24925746  0.89500007  0.49877280    -0.18470
C2595       C  0.24262244  0.89683782  0.46500221     0.09860
C2596       C  0.25052509  0.92565220  0.44708856    -0.07260
C2597       C  0.26391797  0.95285431  0.46439210    -0.18500
C2598       C  0.26878042  0.95166292  0.49882850     0.09890
S2599       S  0.22350846  0.86158680  0.44607683    -0.33460
S2600       S  0.28692751  0.98699688  0.51901608    -0.33470
H2601       H  0.29761432  0.96940990  0.54726080     0.27900
H2602       H  0.20646264  0.88078018  0.42232438     0.27890
H2603       H  0.24106142  0.87312098  0.51206469     0.18490
H2604       H  0.27282806  0.97419171  0.45062995     0.18490
C2605       C  0.14391073  0.07749453  0.57244729    -0.07340
C2606       C  0.16927750  0.06602240  0.55159213    -0.18470
C2607       C  0.17555657  0.03205935  0.54748583     0.09860
C2608       C  0.15702859  0.00833494  0.56538624    -0.07260
C2609       C  0.12927020  0.01936066  0.58321688    -0.18500
C2610       C  0.12297439  0.05358374  0.58761371     0.09890
S2611       S  0.20786926  0.02039095  0.51897227    -0.33460
S2612       S  0.09008384  0.06475788  0.61569374    -0.33470
H2613       H  0.10846965  0.08927993  0.63215531     0.27900
H2614       H  0.19639989  0.98795170  0.51334765     0.27890
H2615       H  0.18435699  0.08366221  0.53810731     0.18490
H2616       H  0.11489513  0.00152005  0.59720136     0.18490
C2617       C  0.17130128  0.97619001  0.69368882    -0.07340
C2618       C  0.15827126  0.96038560  0.72194881    -0.18470
C2619       C  0.15063887  0.97873974  0.74994727     0.09860
C2620       C  0.15560762  0.01310071  0.74906361    -0.07260
C2621       C  0.16095888  0.02945590  0.71913119    -0.18500
C2622       C  0.16972605  0.01137463  0.69130773     0.09890
S2623       S  0.13922763  0.95696689  0.78728898    -0.33460
S2624       S  0.18179234  0.03528796  0.65561078    -0.33470
H2625       H  0.16532983  0.01366944  0.63448351     0.27900
H2626       H  0.12846427  0.98541863  0.80450400     0.27890
H2627       H  0.15694712  0.93353817  0.72357637     0.18490
H2628       H  0.16369002  0.05627391  0.71870837     0.18490
C2629       C  0.02443564  0.88295061  0.64167369    -0.07340
C2630       C  0.03544002  0.87163836  0.61055066    -0.18470
C2631       C  0.06931899  0.87149116  0.60216380     0.09860
C2632       C  0.09293805  0.88383888  0.62502465    -0.07260
C2633       C  0.08143733  0.89609280  0.65557432    -0.18500
C2634       C  0.04813087  0.89489315  0.66434294     0.09890
S2635       S  0.08077854  0.85277011  0.56322293    -0.33460
S2636       S  0.03792844  0.90625296  0.70622759    -0.33470
H2637       H  0.03088457  0.87329980  0.71535018     0.27900
H2638       H  0.10707139  0.83416399  0.57677872     0.27890
H2639       H  0.01784128  0.86072075  0.59359339     0.18490
H2640       H  0.09873496  0.90581852  0.67355892     0.18490
C2641       C  0.28790329  0.90086190  0.68496454    -0.07340
C2642       C  0.28424789  0.91595328  0.71639315    -0.18470
C2643       C  0.30478312  0.90716693  0.74338782     0.09860
C2644       C  0.33010210  0.88336386  0.73871342    -0.07260
C2645       C  0.33467186  0.86993234  0.70670387    -0.18500
C2646       C  0.31384411  0.87799453  0.68014847     0.09890
S2647       S  0.29591873  0.92519029  0.78334760    -0.33460
S2648       S  0.32127504  0.85762704  0.64096539    -0.33470
H2649       H  0.30675522  0.88225304  0.62080522     0.27900
H2650       H  0.30549015  0.89729317  0.80216966     0.27890
H2651       H  0.26397444  0.93319742  0.72046309     0.18490
H2652       H  0.35491438  0.85277441  0.70226197     0.18490
C2653       C  0.53610426  0.72420408  0.53274218    -0.07340
C2654       C  0.51950597  0.72580253  0.50214090    -0.18470
C2655       C  0.48477268  0.72859212  0.50092591     0.09860
C2656       C  0.46648355  0.73234371  0.53075563    -0.07260
C2657       C  0.48309018  0.73107531  0.56077909    -0.18500
C2658       C  0.51677171  0.72484619  0.56194627     0.09890
S2659       S  0.46500483  0.72693524  0.46089075    -0.33460
S2660       S  0.53480381  0.71886367  0.60179152    -0.33470
H2661       H  0.51481003  0.74262164  0.61793802     0.27900
H2662       H  0.43504614  0.74161153  0.47104267     0.27890
H2663       H  0.53361571  0.72672726  0.47928835     0.18490
H2664       H  0.46905262  0.73141271  0.58368900     0.18490
C2665       C  0.38042099  0.65163346  0.45188691    -0.07340
C2666       C  0.39609509  0.62165253  0.44356584    -0.18470
C2667       C  0.39771666  0.61062484  0.41051666     0.09860
C2668       C  0.38289167  0.62970208  0.38457741    -0.07260
C2669       C  0.36512883  0.65831850  0.39338822    -0.18500
C2670       C  0.36343182  0.66927136  0.42636028     0.09890
S2671       S  0.42131914  0.57328569  0.40334010    -0.33460
S2672       S  0.33903958  0.70603122  0.43421501    -0.33470
H2673       H  0.31447891  0.69824777  0.41085279     0.27900
H2674       H  0.44617972  0.59069322  0.38646033     0.27890
H2675       H  0.40871765  0.60749779  0.46268364     0.18490
H2676       H  0.35315844  0.67295671  0.37420400     0.18490
C2677       C  0.29805276  0.77912467  0.58428357    -0.07340
C2678       C  0.26912920  0.76894137  0.60105714    -0.18470
C2679       C  0.24026259  0.78857221  0.60176708     0.09860
C2680       C  0.23965173  0.81992717  0.58596171    -0.07260
C2681       C  0.26863508  0.83060154  0.56989990    -0.18500
C2682       C  0.29752210  0.81089746  0.56894975     0.09890
S2683       S  0.20450579  0.77148200  0.62213946    -0.33460
S2684       S  0.33315781  0.82861937  0.54901443    -0.33470
H2685       H  0.35583333  0.81519022  0.57193385     0.27900
H2686       H  0.18120018  0.78744149  0.60159265     0.27890
H2687       H  0.26821069  0.74455120  0.61243909     0.18490
H2688       H  0.26949059  0.85540001  0.55952029     0.18490
C2689       C  0.39380931  0.71035254  0.64989430    -0.07340
C2690       C  0.36572061  0.72454593  0.66531282    -0.18470
C2691       C  0.36798641  0.75061452  0.68811964     0.09860
C2692       C  0.39914422  0.76381057  0.69606234    -0.07260
C2693       C  0.42747297  0.74900277  0.68185599    -0.18500
C2694       C  0.42515493  0.72187304  0.65984841     0.09890
S2695       S  0.32978359  0.76616136  0.70540427    -0.33460
S2696       S  0.46278260  0.70100253  0.64817588    -0.33470
H2697       H  0.44872074  0.66916583  0.64652392     0.27900
H2698       H  0.34062169  0.79856882  0.71102703     0.27890
H2699       H  0.34124443  0.71608819  0.65884973     0.18490
H2700       H  0.45168925  0.75753019  0.68929447     0.18490
C2701       C  0.34323987  0.57799216  0.57303714    -0.07340
C2702       C  0.30982930  0.56951704  0.57074453    -0.18470
C2703       C  0.29939869  0.53657178  0.57036843     0.09860
C2704       C  0.32286160  0.51009153  0.57223495    -0.07260
C2705       C  0.35649437  0.51824442  0.57295218    -0.18500
C2706       C  0.36691088  0.55165762  0.57391336     0.09890
S2707       S  0.25517082  0.53110826  0.56825935    -0.33460
S2708       S  0.41059822  0.55860456  0.57739711    -0.33470
H2709       H  0.40732358  0.57733073  0.60671952     0.27900
H2710       H  0.25597094  0.49942487  0.55433814     0.27890
H2711       H  0.29114324  0.58888945  0.56950889     0.18490
H2712       H  0.37471747  0.49855824  0.57478453     0.18490
C2713       C  0.03599426  0.73568849  0.42672151    -0.07340
C2714       C  0.02401640  0.74979092  0.39753506    -0.18470
C2715       C  0.99038846  0.74953608  0.39052406     0.09860
C2716       C  0.96765317  0.73574789  0.41371893    -0.07260
C2717       C  0.97971569  0.72281362  0.44361245    -0.18500
C2718       C  0.01349709  0.72321525  0.45055276     0.09890
S2719       S  0.97820501  0.76717841  0.35118849    -0.33460
S2720       S  0.02710663  0.70561498  0.48949517    -0.33470
H2721       H  0.05810878  0.72118942  0.48950541     0.27900
H2722       H  0.95131880  0.74592522  0.34765276     0.27890
H2723       H  0.04118367  0.75800312  0.37856250     0.18490
H2724       H  0.96268401  0.71393894  0.46235734     0.18490
C2725       C  0.10687055  0.63936731  0.50286594    -0.07340
C2726       C  0.12790321  0.65419657  0.52634517    -0.18470
C2727       C  0.12642440  0.64657509  0.56029572     0.09860
C2728       C  0.10393695  0.62238903  0.57205915    -0.07260
C2729       C  0.08404430  0.60617873  0.54824755    -0.18500
C2730       C  0.08490307  0.61468680  0.51420730     0.09890
S2731       S  0.15377117  0.66933341  0.58699405    -0.33460
S2732       S  0.05589216  0.59477601  0.48706194    -0.33470
H2733       H  0.04643887  0.62430668  0.47076920     0.27900
H2734       H  0.12761655  0.68634279  0.60272491     0.27890
H2735       H  0.14526821  0.67296117  0.51828989     0.18490
H2736       H  0.06646182  0.58766980  0.55633266     0.18490
C2737       C  0.20372221  0.76560924  0.37418993    -0.07340
C2738       C  0.23605331  0.75312197  0.36941538    -0.18470
C2739       C  0.26393176  0.77404107  0.36919507     0.09860
C2740       C  0.26004762  0.80869150  0.37350598    -0.07260
C2741       C  0.22760375  0.82129710  0.37635759    -0.18500
C2742       C  0.19973209  0.80037152  0.37745334     0.09890
S2743       S  0.30389725  0.75502661  0.36335460    -0.33460
S2744       S  0.15965399  0.81961960  0.38170012    -0.33470
H2745       H  0.14208653  0.79449078  0.36528449     0.27900
H2746       H  0.32168819  0.77893939  0.38124716     0.27890
H2747       H  0.23984290  0.72652081  0.36725235     0.18490
H2748       H  0.22383976  0.84795099  0.37652396     0.18490
C2749       C  0.09476061  0.71479829  0.31070676    -0.07340
C2750       C  0.12169468  0.73329420  0.29868191    -0.18470
C2751       C  0.11745714  0.76210944  0.27950756     0.09860
C2752       C  0.08550050  0.77293829  0.27043447    -0.07260
C2753       C  0.05828601  0.75481800  0.28242100    -0.18500
C2754       C  0.06255206  0.72594482  0.30215272     0.09890
S2755       S  0.15411272  0.78434352  0.26746074    -0.33460
S2756       S  0.02615681  0.70288735  0.31310772    -0.33470
H2757       H  0.04141768  0.67146130  0.31065485     0.27900
H2758       H  0.13881976  0.81582739  0.26596659     0.27890
H2759       H  0.14662319  0.72584941  0.30490563     0.18490
H2760       H  0.03363868  0.76187467  0.27455714     0.18490
C2761       C  0.22863534  0.68077111  0.44769770    -0.07340
C2762       C  0.23855898  0.71347009  0.45358148    -0.18470
C2763       C  0.26092172  0.72017116  0.47836793     0.09860
C2764       C  0.27358951  0.69336080  0.49669432    -0.07260
C2765       C  0.26518515  0.66051207  0.48959226    -0.18500
C2766       C  0.24291649  0.65387410  0.46457630     0.09890
S2767       S  0.27141443  0.76278464  0.48791306    -0.33460
S2768       S  0.23374917  0.61120308  0.45570566    -0.33470
H2769       H  0.22350566  0.61661623  0.42282128     0.27900
H2770       H  0.25514553  0.77750631  0.46069267     0.27890
H2771       H  0.22669612  0.73388723  0.44054286     0.18490
H2772       H  0.27671215  0.64007488  0.50294604     0.18490
C2773       C  0.13824422  0.56933506  0.37911662    -0.07340
C2774       C  0.12588313  0.54994743  0.35303586    -0.18470
C2775       C  0.13042512  0.51526145  0.35262317     0.09860
C2776       C  0.14914031  0.49965679  0.37788270    -0.07260
C2777       C  0.15901575  0.51853559  0.40522003    -0.18500
C2778       C  0.15268376  0.55284951  0.40674221     0.09890
S2779       S  0.11139059  0.49215176  0.31954351    -0.33460
S2780       S  0.16120138  0.57275277  0.44588576    -0.33470
H2781       H  0.15815674  0.60605016  0.43633978     0.27900
H2782       H  0.11352347  0.46070383  0.33465303     0.27890
H2783       H  0.11288462  0.56190557  0.33272118     0.18490
H2784       H  0.17256808  0.50659113  0.42518793     0.18490
loop_ 
_geom_bond_atom_site_label_1 
_geom_bond_atom_site_label_2 
_geom_bond_distance 
_geom_bond_site_symmetry_2 
_ccdc_geom_bond_type 
O1           C16   1.256       .  A
O1           Al9   1.840       .  S
C2           O12   1.274       .  A
C2            O3   1.276       .  A
C2         C2749   1.507       .  S
O3           Al5   1.933       .  S
O4            C6   1.262       .  A
O4           Al5   1.914       .  S
Al5          O13   1.917       .  S
Al5          O15   1.864       .  S
Al5          O14   1.782       .  S
C6           O19   1.263       .  A
C6         C2737   1.505       .  S
O7           C17   1.265       .  A
O7           Al9   1.931       .  S
O8           C21   1.283       .  A
O8          Al18   1.955       .  S
Al9          O22   1.923       .  S
Al9          O19   1.929       .  S
Al9          O14   1.768       .  S
O10          C17   1.246       .  A
O10         Al18   1.851       .  S
O11          C20   1.250       .  A
O11         Al18   1.909       .  S
O12         Al18   1.932       .  S
O13          C20   1.254       .  A
O14         Al18   1.786       .  S
O15          C16   1.254       .  A
C16        C2761   1.419       .  S
C17        C2713   1.450       .  S
C20        C2773   1.485       .  S
C21          O22   1.272       .  A
C21        C2725   1.501       .  S
O23          C38   1.248       .  A
O23         Al31   1.819       .  S
C24          O34   1.283       .  A
C24          O25   1.273       .  A
C24        C2689   1.503       .  S
O25         Al27   1.916       .  S
O26          C28   1.262       .  A
O26         Al27   1.897       .  S
Al27         O35   1.903       .  S
Al27         O37   1.852       .  S
Al27         O36   1.773       .  S
C28          O41   1.265       .  A
C28        C2677   1.508       .  S
O29          C39   1.264       .  A
O29         Al31   1.931       .  S
O30          C43   1.285       .  A
O30         Al40   1.945       .  S
Al31         O44   1.931       .  S
Al31         O41   1.919       .  S
Al31         O36   1.776       .  S
O32          C39   1.245       .  A
O32         Al40   1.863       .  S
O33          C42   1.249       .  A
O33         Al40   1.916       .  S
O34         Al40   1.952       .  S
O35          C42   1.253       .  A
O36         Al40   1.772       .  S
O37          C38   1.252       .  A
C38        C2764   1.416       .  S
C39        C2656   1.455       .  S
C42        C2701   1.501       .  S
C43          O44   1.274       .  A
C43        C2665   1.496       .  S
O45          C60   1.258       .  A
O45         Al53   1.856       .  S
C46          O56   1.271       .  A
C46          O47   1.268       .  A
C46        C2680   1.496       .  S
O47         Al49   1.916       .  S
O48          C50   1.254       .  A
O48         Al49   1.895       .  S
Al49         O57   1.889       .  S
Al49         O59   1.876       .  S
Al49         O58   1.776       .  S
C50          O63   1.257       .  A
C50        C2641   1.483       .  S
O51          C61   1.270       .  A
O51         Al53   1.937       .  S
O52          C65   1.276       .  A
O52         Al62   1.948       .  S
Al53         O66   1.921       .  S
Al53         O63   1.924       .  S
Al53         O58   1.783       .  S
O54          C61   1.254       .  A
O54         Al62   1.855       .  S
O55          C64   1.253       .  A
O55         Al62   1.916       .  S
O56         Al62   1.928       .  S
O57          C64   1.252       .  A
O58         Al62   1.778       .  S
O59          C60   1.264       .  A
C60        C2617   1.462       .  S
C61        C2593   1.457       .  S
C64        C2632   1.498       .  S
C65          O66   1.268       .  A
C65        C2608   1.488   1_565  S
O67          C82   1.277       .  A
O67         Al75   1.915       .  S
C68          O78   1.291       .  A
C68          O69   1.262       .  A
C68        C2572   1.519       .  S
O69         Al71   1.836       .  S
O70          C72   1.261       .  A
O70         Al71   1.939       .  S
Al71         O79   1.936       .  S
Al71         O81   1.848       .  S
Al71         O80   1.798       .  S
C72          O85   1.260       .  A
C72        C2584   1.495       .  S
O73          C83   1.265       .  A
O73         Al75   1.944       .  S
O74          C87   1.272   1_545  A
O74         Al84   1.966       .  S
Al75         O88   1.837   1_545  S
Al75         O85   1.917       .  S
Al75         O80   1.774       .  S
O76          C83   1.240       .  A
O76         Al84   1.792       .  S
O77          C86   1.239       .  A
O77         Al84   1.868       .  S
O78         Al84   2.010       .  S
O79          C86   1.255       .  A
O80         Al84   1.766       .  S
O81          C82   1.259       .  A
C82        C2620   1.429       .  S
C83        C2536   1.454       .  S
C86        C2560   1.478       .  S
C87          O88   1.250       .  A
C87        C2548   1.493       .  S
O89         C104   1.255       .  A
O89         Al97   1.849       .  S
C90         O100   1.287       .  A
C90          O91   1.281       .  A
C90        C2581   1.512       .  S
O91         Al93   1.930       .  S
O92          C94   1.247       .  A
O92         Al93   1.860       .  S
Al93        O101   1.894       .  S
Al93        O103   1.876       .  S
Al93        O102   1.759       .  S
C94         O107   1.270       .  A
C94        C2521   1.505       .  S
O95         C105   1.264       .  A
O95         Al97   1.947       .  S
O96         C109   1.282       .  A
O96        Al106   1.939       .  S
Al97        O110   1.924       .  S
Al97        O107   1.954       .  S
Al97        O102   1.789       .  S
O98         C105   1.239       .  A
O98        Al106   1.817       .  S
O99         C108   1.237       .  A
O99        Al106   1.871       .  S
O100       Al106   1.941       .  S
O101        C108   1.243       .  A
O102       Al106   1.759       .  S
O103        C104   1.266       .  A
C104       C2497   1.436       .  S
C105       C2476   1.469       .  S
C108       C2512   1.481       .  S
C109        O110   1.273       .  A
C109       C2488   1.479       .  S
O111        C126   1.263       .  A
O111       Al119   1.870       .  S
C112        O122   1.277       .  A
C112        O113   1.275       .  A
C112       C2449   1.503       .  S
O113       Al115   1.931       .  S
O114        C116   1.259       .  A
O114       Al115   1.903       .  S
Al115       O123   1.902       .  S
Al115       O125   1.843       .  S
Al115       O124   1.777       .  S
C116        O129   1.264       .  A
C116       C2437   1.506       .  S
O117        C127   1.267       .  A
O117       Al119   1.972       .  S
O118        C131   1.284       .  A
O118       Al128   1.941       .  S
Al119       O132   1.942       .  S
Al119       O129   1.914       .  S
Al119       O124   1.767       .  S
O120        C127   1.238       .  A
O120       Al128   1.854       .  S
O121        C130   1.247       .  A
O121       Al128   1.907       .  S
O122       Al128   1.937       .  S
O123        C130   1.248       .  A
O124       Al128   1.785       .  S
O125        C126   1.250       .  A
C126       C2500   1.430       .  S
C127       C2413   1.466       .  S
C130       C2461   1.475       .  S
C131        O132   1.277       .  A
C131       C2428   1.494       .  S
O133        C148   1.263       .  A
O133       Al141   1.909       .  S
C134        O144   1.276       .  A
C134        O135   1.264       .  A
C134       C2440   1.512       .  S
O135       Al137   1.911       .  S
O136        C138   1.256       .  A
O136       Al137   1.886       .  S
Al137       O145   1.878       .  S
Al137       O147   1.849       .  S
Al137       O146   1.779       .  S
C138        O151   1.269       .  A
C138       C2401   1.497       .  S
O139        C149   1.281       .  A
O139       Al141   1.952       .  S
O140        C153   1.283       .  A
O140       Al150   1.984       .  S
Al141       O154   1.874       .  S
Al141       O151   1.950       .  S
Al141       O146   1.782       .  S
O142        C149   1.249       .  A
O142       Al150   1.835       .  S
O143        C152   1.256       .  A
O143       Al150   1.920       .  S
O144       Al150   1.966       .  S
O145        C152   1.247       .  A
O146       Al150   1.769       .  S
O147        C148   1.256       .  A
C148       C2380   1.461       .  S
C149       C2353   1.468       .  S
C152       C2389   1.497       .  S
C153        O154   1.258       .  A
C153       C2365   1.495       .  S
O155        C170   1.276       .  A
O155       Al163   1.901       .  S
C156        O166   1.294       .  A
C156        O157   1.270       .  A
C156       C2317   1.499       .  S
O157       Al159   1.881       .  S
O158        C160   1.249       .  A
O158       Al159   1.899       .  S
Al159       O167   1.917       .  S
Al159       O169   1.878       .  S
Al159       O168   1.788       .  S
C160        O173   1.263       .  A
C160       C2332   1.488       .  S
O161        C171   1.268       .  A
O161       Al163   1.943       .  S
O162        C175   1.271   1_554  A
O162       Al172   1.950       .  S
Al163       O176   1.837   1_554  S
Al163       O173   1.932       .  S
Al163       O168   1.775       .  S
O164        C171   1.241       .  A
O164       Al172   1.797       .  S
O165        C174   1.240       .  A
O165       Al172   1.875       .  S
O166       Al172   2.004       .  S
O167        C174   1.251       .  A
O168       Al172   1.768       .  S
O169        C170   1.272       .  A
C170       C2377   1.446   1_554  S
C171       C2293   1.452       .  S
C174       C2344   1.476       .  S
C175        O176   1.249       .  A
C175       C2308   1.483       .  S
O177        C192   1.267       .  A
O177       Al185   1.874       .  S
C178        O188   1.290       .  A
C178        O179   1.274       .  A
C178       C2329   1.497       .  S
O179       Al181   1.895       .  S
O180        C182   1.246       .  A
O180       Al181   1.880       .  S
Al181       O189   1.915       .  S
Al181       O191   1.890       .  S
Al181       O190   1.774       .  S
C182        O195   1.271       .  A
C182       C2257   1.491       .  S
O183        C193   1.266       .  A
O183       Al185   1.944       .  S
O184        C197   1.266       .  A
O184       Al194   1.920       .  S
Al185       O198   1.885       .  S
Al185       O195   1.963       .  S
Al185       O190   1.790       .  S
O186        C193   1.242       .  A
O186       Al194   1.801       .  S
O187        C196   1.237       .  A
O187       Al194   1.876       .  S
O188       Al194   1.987       .  S
O189        C196   1.248       .  A
O190       Al194   1.767       .  S
O191        C192   1.277       .  A
C192       C2272   1.453       .  S
C193       C2233   1.461       .  S
C196       C2281   1.493       .  S
C197        O198   1.259       .  A
C197       C2248   1.472       .  S
O199        C214   1.268       .  A
O199       Al207   1.897       .  S
C200        O210   1.279       .  A
C200        O201   1.269       .  A
C200       C2209   1.479       .  S
O201       Al203   1.888       .  S
O202        C204   1.252       .  A
O202       Al203   1.899       .  S
Al203       O211   1.907       .  S
Al203       O213   1.851       .  S
Al203       O212   1.791       .  S
C204        O217   1.255       .  A
C204       C2197   1.503       .  S
O205        C215   1.269       .  A
O205       Al207   1.941       .  S
O206        C219   1.271       .  A
O206       Al216   1.932       .  S
Al207       O220   1.859       .  S
Al207       O217   1.921       .  S
Al207       O212   1.796       .  S
O208        C215   1.243       .  A
O208       Al216   1.832       .  S
O209        C218   1.241       .  A
O209       Al216   1.888       .  S
O210       Al216   1.944       .  S
O211        C218   1.249       .  A
O212       Al216   1.795       .  S
O213        C214   1.261       .  A
C214       C2269   1.438       .  S
C215       C2173   1.468       .  S
C218       C2224   1.493       .  S
C219        O220   1.256       .  A
C219       C2185   1.481       .  S
O221        C236   1.274       .  A
O221       Al229   1.891       .  S
C222        O232   1.298       .  A
C222        O223   1.282       .  A
C222       C2200   1.519       .  S
O223       Al225   1.898       .  S
O224        C226   1.253       .  A
O224       Al225   1.898       .  S
Al225       O233   1.901       .  S
Al225       O235   1.892       .  S
Al225       O234   1.772       .  S
C226        O239   1.257       .  A
C226       C2161   1.496       .  S
O227        C237   1.257       .  A
O227       Al229   1.925       .  S
O228        C241   1.279       .  A
O228       Al238   1.947       .  S
Al229       O242   1.898       .  S
Al229       O239   1.915       .  S
Al229       O234   1.771       .  S
O230        C237   1.234       .  A
O230       Al238   1.804       .  S
O231        C240   1.233       .  A
O231       Al238   1.849       .  S
O232       Al238   1.991       .  S
O233        C240   1.243       .  A
O234       Al238   1.747       .  S
O235        C236   1.273       .  A
C236       C2137   1.467       .  S
C237       C2116   1.445       .  S
C240       C2149   1.473       .  S
C241        O242   1.268       .  A
C241       C2125   1.504   1_655  S
O243        C258   1.275       .  A
O243       Al251   1.934       .  S
C244        O254   1.282       .  A
C244        O245   1.254       .  A
C244       C2089   1.492       .  S
O245       Al247   1.831       .  S
O246        C248   1.267       .  A
O246       Al247   1.926       .  S
Al247       O255   1.932       .  S
Al247       O257   1.867       .  S
Al247       O256   1.773       .  S
C248        O261   1.273       .  A
C248       C2752   1.493       .  S
O249        C259   1.273       .  A
O249       Al251   1.993       .  S
O250        C263   1.279       .  A
O250       Al260   1.997       .  S
Al251       O264   1.840       .  S
Al251       O261   1.934       .  S
Al251       O256   1.778       .  S
O252        C259   1.243       .  A
O252       Al260   1.837       .  S
O253        C262   1.251       .  A
O253       Al260   1.887       .  S
O254       Al260   1.993       .  S
O255        C262   1.264       .  A
O256       Al260   1.765       .  S
O257        C258   1.255       .  A
C258       C2140   1.443       .  S
C259       C2065   1.486       .  S
C262       C2101   1.493       .  S
C263        O264   1.251       .  A
C263       C2080   1.499   1_455  S
O265        C280   1.257       .  A
O265       Al273   1.869       .  S
C266        O276   1.275       .  A
C266        O267   1.264       .  A
C266       C2740   1.504       .  S
O267       Al269   1.916       .  S
O268        C270   1.259       .  A
O268       Al269   1.891       .  S
Al269       O277   1.897       .  S
Al269       O279   1.851       .  S
Al269       O278   1.773       .  S
C270        O283   1.266       .  A
C270       C2092   1.506       .  S
O271        C281   1.272       .  A
O271       Al273   1.941       .  S
O272        C285   1.281       .  A
O272       Al282   1.960       .  S
Al273       O286   1.908       .  S
Al273       O283   1.939       .  S
Al273       O278   1.778       .  S
O274        C281   1.249       .  A
O274       Al282   1.845       .  S
O275        C284   1.258       .  A
O275       Al282   1.924       .  S
O276       Al282   1.960       .  S
O277        C284   1.254       .  A
O278       Al282   1.770       .  S
O279        C280   1.253       .  A
C280       C2041   1.420       .  S
C281       C2596   1.456       .  S
C284       C2053   1.501       .  S
C285        O286   1.266       .  A
C285       C2029   1.488       .  S
O287        C302   1.261       .  A
O287       Al295   1.868       .  S
C288        O298   1.286       .  A
C288        O289   1.278       .  A
C288       C1993   1.501       .  S
O289       Al291   1.920       .  S
O290        C292   1.242       .  A
O290       Al291   1.845       .  S
Al291       O299   1.878       .  S
Al291       O301   1.860       .  S
Al291       O300   1.760       .  S
C292        O305   1.272       .  A
C292       C2008   1.518       .  S
O293        C303   1.274       .  A
O293       Al295   1.980       .  S
O294        C307   1.285   1_545  A
O294       Al304   1.948       .  S
Al295       O308   1.920   1_545  S
Al295       O305   1.966       .  S
Al295       O300   1.781       .  S
O296        C303   1.236       .  A
O296       Al304   1.814       .  S
O297        C306   1.239       .  A
O297       Al304   1.892       .  S
O298       Al304   1.951       .  S
O299        C306   1.243       .  A
O300       Al304   1.758       .  S
O301        C302   1.265       .  A
C302       C2044   1.448   1_545  S
C303       C2533   1.471   1_554  S
C306       C2017   1.488       .  S
C307        O308   1.274       .  A
C307       C1981   1.492       .  S
O309        C324   1.261       .  A
O309       Al317   1.865       .  S
C310        O320   1.278       .  A
C310        O311   1.267       .  A
C310       C2524   1.495       .  S
O311       Al313   1.905       .  S
O312        C314   1.260       .  A
O312       Al313   1.895       .  S
Al313       O321   1.888       .  S
Al313       O323   1.836       .  S
Al313       O322   1.781       .  S
C314        O327   1.263       .  A
C314       C2569   1.508       .  S
O315        C325   1.274       .  A
O315       Al317   1.967       .  S
O316        C329   1.280       .  A
O316       Al326   1.944       .  S
Al317       O330   1.904       .  S
Al317       O327   1.935       .  S
Al317       O322   1.773       .  S
O318        C325   1.243       .  A
O318       Al326   1.858       .  S
O319        C328   1.251       .  A
O319       Al326   1.906       .  S
O320       Al326   1.957       .  S
O321        C328   1.249       .  A
O322       Al326   1.779       .  S
O323        C324   1.251       .  A
C324       C1957   1.415       .  S
C325       C2356   1.462       .  S
C328       C1972   1.477       .  S
C329        O330   1.267       .  A
C329       C1948   1.480   1_556  S
O331        C346   1.252       .  A
O331       Al339   1.826       .  S
C332        O342   1.282       .  A
C332        O333   1.286       .  A
C332       C1924   1.513       .  S
O333       Al335   1.953       .  S
O334        C336   1.254       .  A
O334       Al335   1.870       .  S
Al335       O343   1.922       .  S
Al335       O345   1.870       .  S
Al335       O344   1.760       .  S
C336        O349   1.271       .  A
C336       C1996   1.520       .  S
O337        C347   1.266       .  A
O337       Al339   1.952       .  S
O338        C351   1.292   1_554  A
O338       Al348   1.959       .  S
Al339       O352   1.948   1_554  S
Al339       O349   1.960       .  S
Al339       O344   1.768       .  S
O340        C347   1.237       .  A
O340       Al348   1.824       .  S
O341        C350   1.242       .  A
O341       Al348   1.902       .  S
O342       Al348   1.933       .  S
O343        C350   1.247       .  A
O344       Al348   1.761       .  S
O345        C346   1.262       .  A
C346       C1960   1.441   1_554  S
C347       C2296   1.458       .  S
C350       C1936   1.491       .  S
C351        O352   1.280       .  A
C351       C1909   1.496       .  S
O353        C368   1.274       .  A
O353       Al361   1.874       .  S
C354        O364   1.296       .  A
C354        O355   1.276       .  A
C354       C2260   1.514       .  S
O355       Al357   1.895       .  S
O356        C358   1.242       .  A
O356       Al357   1.869       .  S
Al357       O365   1.882       .  S
Al357       O367   1.889       .  S
Al357       O366   1.772       .  S
C358        O371   1.266       .  A
C358       C2320   1.497       .  S
O359        C369   1.266       .  A
O359       Al361   1.948       .  S
O360        C373   1.274       .  A
O360       Al370   1.936       .  S
Al361       O374   1.894       .  S
Al361       O371   1.947       .  S
Al361       O366   1.776       .  S
O362        C369   1.236       .  A
O362       Al370   1.796       .  S
O363        C372   1.230       .  A
O363       Al370   1.842       .  S
O364       Al370   1.985       .  S
O365        C372   1.241       .  A
O366       Al370   1.752       .  S
O367        C368   1.274       .  A
C368       C1885   1.444       .  S
C369       C2113   1.462       .  S
C372       C1897   1.468       .  S
C373        O374   1.263       .  A
C373       C1873   1.482   1_655  S
O375        C390   1.261       .  A
O375       Al383   1.870       .  S
C376        O386   1.283       .  A
C376        O377   1.278       .  A
C376       C2005   1.504       .  S
O377       Al379   1.920       .  S
O378        C380   1.255       .  A
O378       Al379   1.879       .  S
Al379       O387   1.906       .  S
Al379       O389   1.868       .  S
Al379       O388   1.779       .  S
C380        O393   1.273       .  A
C380       C1921   1.528       .  S
O381        C391   1.270       .  A
O381       Al383   1.974       .  S
O382        C395   1.283       .  A
O382       Al392   1.940       .  S
Al383       O396   1.901       .  S
Al383       O393   1.970       .  S
Al383       O388   1.792       .  S
O384        C391   1.238       .  A
O384       Al392   1.820       .  S
O385        C394   1.245       .  A
O385       Al392   1.914       .  S
O386       Al392   1.951       .  S
O387        C394   1.245       .  A
O388       Al392   1.769       .  S
O389        C390   1.258       .  A
C390       C1888   1.441       .  S
C391       C2068   1.503       .  S
C394       C1864   1.498       .  S
C395        O396   1.272       .  A
C395       C1849   1.490   1_455  S
O397        C412   1.272       .  A
O397       Al405   1.914       .  S
C398        O408   1.284       .  A
C398        O399   1.259       .  A
C398       C1801   1.502       .  S
O399       Al401   1.838       .  S
O400        C402   1.265       .  A
O400       Al401   1.930       .  S
Al401       O409   1.951       .  S
Al401       O411   1.839       .  S
Al401       O410   1.776       .  S
C402        O415   1.277       .  A
C402       C1813   1.494       .  S
O403        C413   1.275       .  A
O403       Al405   2.001       .  S
O404        C417   1.279       .  A
O404       Al414   2.008       .  S
Al405       O418   1.810       .  S
Al405       O415   1.941       .  S
Al405       O410   1.777       .  S
O406        C413   1.234       .  A
O406       Al414   1.826       .  S
O407        C416   1.243       .  A
O407       Al414   1.865       .  S
O408       Al414   1.991       .  S
O409        C416   1.262       .  A
O410       Al414   1.751       .  S
O411        C412   1.258       .  A
C412       C1825   1.434       .  S
C413       C2176   1.500       .  S
C416       C1837   1.475       .  S
C417        O418   1.246       .  A
C417       C1789   1.505       .  S
O419        C434   1.279       .  A
O419       Al427   1.913       .  S
C420        O430   1.295       .  A
C420        O421   1.268       .  A
C420       C2404   1.494       .  S
O421       Al423   1.864       .  S
O422        C424   1.253       .  A
O422       Al423   1.905       .  S
Al423       O431   1.920       .  S
Al423       O433   1.845       .  S
Al423       O432   1.787       .  S
C424        O437   1.260       .  A
C424       C2452   1.514       .  S
O425        C435   1.268       .  A
O425       Al427   1.962       .  S
O426        C439   1.271       .  A
O426       Al436   1.939       .  S
Al427       O440   1.872       .  S
Al427       O437   1.936       .  S
Al427       O432   1.784       .  S
O428        C435   1.234       .  A
O428       Al436   1.780       .  S
O429        C438   1.231       .  A
O429       Al436   1.852       .  S
O430       Al436   2.000       .  S
O431        C438   1.251       .  A
O432       Al436   1.765       .  S
O433        C434   1.262       .  A
C434       C1828   1.434       .  S
C435       C2236   1.465       .  S
C438       C1780   1.501       .  S
C439        O440   1.260       .  A
C439       C1765   1.491       .  S
O441        C456   1.281       .  A
O441       Al449   1.931       .  S
C442        O452   1.297       .  A
C442        O443   1.268       .  A
C442       C1816   1.520       .  S
O443       Al445   1.866       .  S
O444        C446   1.248       .  A
O444       Al445   1.900       .  S
Al445       O453   1.899       .  S
Al445       O455   1.879       .  S
Al445       O454   1.783       .  S
C446        O459   1.262       .  A
C446       C1729   1.475       .  S
O447        C457   1.265       .  A
O447       Al449   1.932       .  S
O448        C461   1.272       .  A
O448       Al458   1.966       .  S
Al449       O462   1.832       .  S
Al449       O459   1.924       .  S
Al449       O454   1.764       .  S
O450        C457   1.243       .  A
O450       Al458   1.817       .  S
O451        C460   1.242       .  A
O451       Al458   1.896       .  S
O452       Al458   2.013       .  S
O453        C460   1.248       .  A
O454       Al458   1.762       .  S
O455        C456   1.273       .  A
C456       C1741   1.461       .  S
C457       C2416   1.460       .  S
C460       C1753   1.484       .  S
C461        O462   1.253       .  A
C461       C1720   1.497       .  S
O463        C478   1.275       .  A
O463       Al471   1.920       .  S
C464        O474   1.284       .  A
C464        O465   1.263       .  A
C464       C2644   1.492       .  S
O465       Al467   1.859       .  S
O466        C468   1.261       .  A
O466       Al467   1.937       .  S
Al467       O475   1.952       .  S
Al467       O477   1.864       .  S
Al467       O476   1.792       .  S
C468        O481   1.258       .  A
C468       C2692   1.487       .  S
O469        C479   1.264       .  A
O469       Al471   1.938       .  S
O470        C483   1.269       .  A
O470       Al480   1.955       .  S
Al471       O484   1.824       .  S
Al471       O481   1.903       .  S
Al471       O476   1.779       .  S
O472        C479   1.241       .  A
O472       Al480   1.799       .  S
O473        C482   1.241       .  A
O473       Al480   1.861       .  S
O474       Al480   1.981       .  S
O475        C482   1.261       .  A
O476       Al480   1.770       .  S
O477        C478   1.263       .  A
C478       C1744   1.438       .  S
C479       C2473   1.450       .  S
C482       C1705   1.490       .  S
C483        O484   1.248       .  A
C483       C1693   1.493       .  S
O485        C500   1.279       .  A
O485       Al493   1.921       .  S
C486        O496   1.292       .  A
C486        O487   1.262       .  A
C486       C1732   1.488       .  S
O487       Al489   1.851       .  S
O488        C490   1.251       .  A
O488       Al489   1.890       .  S
Al489       O497   1.922       .  S
Al489       O499   1.859       .  S
Al489       O498   1.788       .  S
C490        O503   1.264       .  A
C490       C1804   1.493       .  S
O491        C501   1.274       .  A
O491       Al493   1.978       .  S
O492        C505   1.267       .  A
O492       Al502   1.943       .  S
Al493       O506   1.837       .  S
Al493       O503   1.933       .  S
Al493       O498   1.786       .  S
O494        C501   1.241       .  A
O494       Al502   1.792       .  S
O495        C504   1.237       .  A
O495       Al502   1.863       .  S
O496       Al502   2.002       .  S
O497        C504   1.253       .  A
O498       Al502   1.770       .  S
O499        C500   1.265       .  A
C500       C1669   1.430       .  S
C501       C2653   1.473       .  S
C504       C1681   1.477       .  S
C505        O506   1.249       .  A
C505       C1657   1.482       .  S
O507        C522   1.277       .  A
O507       Al515   1.917       .  S
C508        O518   1.291       .  A
C508        O509   1.269       .  A
C508       C2164   1.471       .  S
O509       Al511   1.856       .  S
O510        C512   1.249       .  A
O510       Al511   1.882       .  S
Al511       O519   1.913       .  S
Al511       O521   1.863       .  S
Al511       O520   1.779       .  S
C512        O525   1.263       .  A
C512       C2212   1.498       .  S
O513        C523   1.268       .  A
O513       Al515   1.947       .  S
O514        C527   1.268       .  A
O514       Al524   1.936       .  S
Al515       O528   1.875       .  S
Al515       O525   1.946       .  S
Al515       O520   1.777       .  S
O516        C523   1.238       .  A
O516       Al524   1.796       .  S
O517        C526   1.235       .  A
O517       Al524   1.851       .  S
O518       Al524   1.979       .  S
O519        C526   1.247       .  A
O520       Al524   1.761       .  S
O521        C522   1.274       .  A
C522       C1672   1.462       .  S
C523       C2716   1.467       .  S
C526       C1645   1.473       .  S
C527        O528   1.257       .  A
C527       C1636   1.490       .  S
O529        C544   1.258       .  A
O529       Al537   1.896       .  S
C530        O540   1.274       .  A
C530        O531   1.297       .  A
C530       C1609   1.499       .  S
O531       Al533   2.003       .  S
O532        C534   1.244       .  A
O532       Al533   1.811       .  S
Al533       O541   1.870       .  S
Al533       O543   1.937       .  S
Al533       O542   1.755       .  S
C534        O547   1.265       .  A
C534       C1588   1.450       .  S
O535        C545   1.255       .  A
O535       Al537   1.929       .  S
O536        C549   1.273       .  A
O536       Al546   1.866       .  S
Al537       O550   1.895       .  S
Al537       O547   1.933       .  S
Al537       O542   1.773       .  S
O538        C545   1.245       .  A
O538       Al546   1.877       .  S
O539        C548   1.247       .  A
O539       Al546   1.914       .  S
O540       Al546   1.884       .  S
O541        C548   1.236       .  A
O542       Al546   1.769       .  S
O543        C544   1.270       .  A
C544       C2104   1.499   1_556  S
C545       C1597   1.492       .  S
C548       C2545   1.494       .  S
C549        O550   1.278       .  A
C549       C1624   1.420       .  S
O551        C566   1.276       .  A
O551       Al559   1.935   1_556  S
C552        O562   1.277       .  A
C552        O553   1.276       .  A
C552       C1573   1.496       .  S
O553       Al555   1.931       .  S
O554        C556   1.243       .  A
O554       Al555   1.840       .  S
Al555       O563   1.899       .  S
Al555       O565   1.936       .  S
Al555       O564   1.774       .  S
C556        O569   1.272       .  A
C556       C1552   1.476       .  S
O557        C567   1.268       .  A
O557       Al559   1.945       .  S
O558        C571   1.260       .  A
O558       Al568   1.881       .  S
Al559       O572   1.831       .  S
Al559       O569   1.969       .  S
Al559       O564   1.770       .  S
O560        C567   1.258       .  A
O560       Al568   1.887       .  S
O561        C570   1.255       .  A
O561       Al568   1.923       .  S
O562       Al568   1.932       .  S
O563        C570   1.248       .  A
O564       Al568   1.772       .  S
O565        C566   1.281   1_554  A
C566       C1708   1.478       .  S
C567       C1561   1.500       .  S
C570       C1984   1.485       .  S
C571        O572   1.252       .  A
C571       C1621   1.447   1_554  S
O573        C588   1.254       .  A
O573       Al581   1.849       .  S
C574        O584   1.262       .  A
C574        O575   1.292       .  A
C574       C1600   1.511       .  S
O575       Al577   2.022       .  S
O576        C578   1.242       .  A
O576       Al577   1.805       .  S
Al577       O585   1.874       .  S
Al577       O587   1.953       .  S
Al577       O586   1.775       .  S
C578        O591   1.268       .  A
C578       C1513   1.463       .  S
O579        C589   1.265       .  A
O579       Al581   1.939       .  S
O580        C593   1.257       .  A
O580       Al590   1.846       .  S
Al581       O594   1.932       .  S
Al581       O591   1.949       .  S
Al581       O586   1.783       .  S
O582        C589   1.255       .  A
O582       Al590   1.905       .  S
O583        C592   1.251       .  A
O583       Al590   1.917       .  S
O584       Al590   1.827       .  S
O585        C592   1.240       .  A
O586       Al590   1.783       .  S
O587        C588   1.270       .  A
C588       C1969   1.498       .  S
C589       C1540   1.498       .  S
C592       C1717   1.489       .  S
C593        O594   1.276       .  A
C593       C1528   1.434       .  S
O595        C610   1.250       .  A
O595       Al603   1.846       .  S
C596        O606   1.272       .  A
C596        O597   1.298       .  A
C596       C1489   1.518       .  S
O597       Al599   2.017       .  S
O598        C600   1.240       .  A
O598       Al599   1.806       .  S
Al599       O607   1.886       .  S
Al599       O609   1.972       .  S
Al599       O608   1.759       .  S
C600        O613   1.270       .  A
C600       C1477   1.469       .  S
O601        C611   1.262       .  A
O601       Al603   1.928       .  S
O602        C615   1.268       .  A
O602       Al612   1.864       .  S
Al603       O616   1.921       .  S
Al603       O613   1.962       .  S
Al603       O608   1.767       .  S
O604        C611   1.256       .  A
O604       Al612   1.939       .  S
O605        C614   1.255       .  A
O605       Al612   1.943       .  S
O606       Al612   1.870       .  S
O607        C614   1.242       .  A
O608       Al612   1.793       .  S
O609        C610   1.275       .  A
C610       C2704   1.493       .  S
C611       C1501   1.501       .  S
C614       C2425   1.501       .  S
C615        O616   1.283       .  A
C615       C1525   1.450       .  S
O617        C632   1.251       .  A
O617       Al625   1.837       .  S
C618        O628   1.262       .  A
C618        O619   1.282       .  A
C618       C1444   1.496       .  S
O619       Al621   1.976       .  S
O620        C622   1.244       .  A
O620       Al621   1.845       .  S
Al621       O629   1.879       .  S
Al621       O631   1.975       .  S
Al621       O630   1.763       .  S
C622        O635   1.265       .  A
C622       C1429   1.484       .  S
O623        C633   1.275       .  A
O623       Al625   1.941       .  S
O624        C637   1.266       .  A
O624       Al634   1.882       .  S
Al625       O638   1.914       .  S
Al625       O635   1.956       .  S
Al625       O630   1.785       .  S
O626        C633   1.262       .  A
O626       Al634   1.909       .  S
O627        C636   1.258       .  A
O627       Al634   1.918       .  S
O628       Al634   1.867       .  S
O629        C636   1.245       .  A
O630       Al634   1.771       .  S
O631        C632   1.276       .  A
C632       C2557   1.476   1_655  S
C633       C1456   1.480       .  S
C636       C2305   1.482       .  S
C637        O638   1.269       .  A
C637       C1468   1.461       .  S
O639        C654   1.240   1_455  A
O639       Al647   1.820       .  S
C640        O650   1.257       .  A
C640        O641   1.290       .  A
C640       C1504   1.500       .  S
O641       Al643   2.012       .  S
O642        C644   1.244       .  A
O642       Al643   1.826       .  S
Al643       O651   1.890       .  S
Al643       O653   2.006       .  S
Al643       O652   1.768       .  S
C644        O657   1.276       .  A
C644       C1405   1.488       .  S
O645        C655   1.269       .  A
O645       Al647   1.921       .  S
O646        C659   1.259       .  A
O646       Al656   1.863       .  S
Al647       O660   1.918       .  S
Al647       O657   1.997       .  S
Al647       O652   1.772       .  S
O648        C655   1.267       .  A
O648       Al656   1.947       .  S
O649        C658   1.266       .  A
O649       Al656   1.970       .  S
O650       Al656   1.855       .  S
O651        C658   1.250       .  A
O652       Al656   1.792       .  S
O653        C654   1.280   1_455  A
C654       C1777   1.503       .  S
C655       C1420   1.502       .  S
C658       C1912   1.508       .  S
C659        O660   1.274       .  A
C659       C1465   1.436       .  S
O661        C676   1.276       .  A
O661       Al669   1.946       .  S
C662        O672   1.277       .  A
C662        O663   1.281       .  A
C662       C1417   1.520       .  S
O663       Al665   1.956       .  S
O664        C666   1.243       .  A
O664       Al665   1.839       .  S
Al665       O673   1.899       .  S
Al665       O675   1.959       .  S
Al665       O674   1.773       .  S
C666        O679   1.274       .  A
C666       C1384   1.477       .  S
O667        C677   1.271       .  A
O667       Al669   1.953       .  S
O668        C681   1.258       .  A
O668       Al678   1.873       .  S
Al669       O682   1.845       .  S
Al669       O679   1.974       .  S
Al669       O674   1.772       .  S
O670        C677   1.260       .  A
O670       Al678   1.901       .  S
O671        C680   1.256       .  A
O671       Al678   1.926       .  S
O672       Al678   1.939       .  S
O673        C680   1.247       .  A
O674       Al678   1.775       .  S
O675        C676   1.285       .  A
C676       C1861   1.498       .  S
C677       C1492   1.502       .  S
C680       C2605   1.494       .  S
C681        O682   1.254       .  A
C681       C1393   1.451       .  S
O683        C698   1.262       .  A
O683       Al691   1.884       .  S
C684        O694   1.274       .  A
C684        O685   1.292       .  A
C684       C1372   1.500       .  S
O685       Al687   1.980       .  S
O686        C688   1.239       .  A
O686       Al687   1.813       .  S
Al687       O695   1.869       .  S
Al687       O697   1.935       .  S
Al687       O696   1.767       .  S
C688        O701   1.260       .  A
C688       C1345   1.451       .  S
O689        C699   1.256       .  A
O689       Al691   1.923       .  S
O690        C703   1.269       .  A
O690       Al700   1.869       .  S
Al691       O704   1.893       .  S
Al691       O701   1.933       .  S
Al691       O696   1.779       .  S
O692        C699   1.252       .  A
O692       Al700   1.906       .  S
O693        C702   1.248       .  A
O693       Al700   1.914       .  S
O694       Al700   1.875       .  S
O695        C702   1.238       .  A
O696       Al700   1.782       .  S
O697        C698   1.272       .  A
C698       C2509   1.497       .  S
C699       C1357   1.510       .  S
C702       C2032   1.497       .  S
C703        O704   1.274       .  A
C703       C1396   1.426       .  S
O705        C720   1.253       .  A
O705       Al713   1.859       .  S
C706        O716   1.265       .  A
C706        O707   1.291       .  A
C706       C1309   1.512       .  S
O707       Al709   2.004       .  S
O708        C710   1.242       .  A
O708       Al709   1.804       .  S
Al709       O717   1.882       .  S
Al709       O719   1.945       .  S
Al709       O718   1.767       .  S
C710        O723   1.266       .  A
C710       C1297   1.458       .  S
O711        C721   1.262       .  A
O711       Al713   1.936       .  S
O712        C725   1.265       .  A
O712       Al722   1.852       .  S
Al713       O726   1.917       .  S
Al713       O723   1.943       .  S
Al713       O718   1.780       .  S
O714        C721   1.253       .  A
O714       Al722   1.915       .  S
O715        C724   1.252       .  A
O715       Al722   1.922       .  S
O716       Al722   1.845       .  S
O717        C724   1.240       .  A
O718       Al722   1.790       .  S
O719        C720   1.268       .  A
C720       C2341   1.483   1_565  S
C721       C1321   1.494       .  S
C724       C2077   1.482       .  S
C725        O726   1.278       .  A
C725       C1336   1.434       .  S
O727        C742   1.252       .  A
O727       Al735   1.848   1_565  S
C728        O738   1.268       .  A
C728        O729   1.291       .  A
C728       C1285   1.473       .  S
O729       Al731   1.980       .  S
O730        C732   1.240       .  A
O730       Al731   1.791       .  S
Al731       O739   1.875       .  S
Al731       O741   1.925       .  S
Al731       O740   1.756       .  S
C732        O745   1.275       .  A
C732       C1261   1.475       .  S
O733        C743   1.260       .  A
O733       Al735   1.935       .  S
O734        C747   1.273       .  A
O734       Al744   1.847       .  S
Al735       O748   1.943       .  S
Al735       O745   1.972       .  S
Al735       O740   1.772       .  S
O736        C743   1.250       .  A
O736       Al744   1.896       .  S
O737        C746   1.251       .  A
O737       Al744   1.934       .  S
O738       Al744   1.847       .  S
O739        C746   1.240       .  A
O740       Al744   1.779       .  S
O741        C742   1.264   1_545  A
C742       C1648   1.479       .  S
C743       C1276   1.489       .  S
C746       C1852   1.494       .  S
C747        O748   1.287       .  A
C747       C1333   1.442       .  S
O749        C764   1.261       .  A
O749       Al757   1.876       .  S
C750        O760   1.271       .  A
C750        O751   1.300       .  A
C750       C1324   1.516       .  S
O751       Al753   2.016       .  S
O752        C754   1.237       .  A
O752       Al753   1.785       .  S
Al753       O761   1.854       .  S
Al753       O763   1.962       .  S
Al753       O762   1.749       .  S
C754        O767   1.267       .  A
C754       C1225   1.471       .  S
O755        C765   1.266       .  A
O755       Al757   1.957       .  S
O756        C769   1.272       .  A
O756       Al766   1.877       .  S
Al757       O770   1.886       .  S
Al757       O767   1.951       .  S
Al757       O762   1.780       .  S
O758        C765   1.249       .  A
O758       Al766   1.885       .  S
O759        C768   1.244       .  A
O759       Al766   1.906       .  S
O760       Al766   1.863       .  S
O761        C768   1.232       .  A
O762       Al766   1.769       .  S
O763        C764   1.276       .  A
C764       C2056   1.508       .  S
C765       C1249   1.507       .  S
C768       C1660   1.476       .  S
C769        O770   1.277       .  A
C769       C1237   1.432       .  S
O771        C786   1.263       .  A
O771       Al779   1.874       .  S
C772        O782   1.275       .  A
C772        O773   1.283       .  A
C772       C1213   1.504       .  S
O773       Al775   1.964       .  S
O774        C776   1.231       .  A
O774       Al775   1.791       .  S
Al775       O783   1.860       .  S
Al775       O785   1.962       .  S
Al775       O784   1.779       .  S
C776        O789   1.267       .  A
C776       C1201   1.473       .  S
O777        C787   1.268       .  A
O777       Al779   1.953       .  S
O778        C791   1.265       .  A
O778       Al788   1.889       .  S
Al779       O792   1.840       .  S
Al779       O789   1.946       .  S
Al779       O784   1.797       .  S
O780        C787   1.250       .  A
O780       Al788   1.863       .  S
O781        C790   1.248       .  A
O781       Al788   1.908       .  S
O782       Al788   1.922       .  S
O783        C790   1.234       .  A
O784       Al788   1.785       .  S
O785        C786   1.279       .  A
C786       C2221   1.487       .  S
C787       C1576   1.516       .  S
C790       C2668   1.498       .  S
C791        O792   1.257       .  A
C791       C1240   1.441       .  S
O793        C808   1.256       .  A
O793       Al801   1.869       .  S
C794        O804   1.271       .  A
C794        O795   1.297       .  A
C794       C1564   1.521       .  S
O795       Al797   2.014       .  S
O796        C798   1.235       .  A
O796       Al797   1.775       .  S
Al797       O805   1.865       .  S
Al797       O807   1.961       .  S
Al797       O806   1.751       .  S
C798        O811   1.273       .  A
C798       C1516   1.498       .  S
O799        C809   1.267       .  A
O799       Al801   1.954       .  S
O800        C813   1.267       .  A
O800       Al810   1.855       .  S
Al801       O814   1.933       .  S
Al801       O811   1.984       .  S
Al801       O806   1.779       .  S
O802        C809   1.252       .  A
O802       Al810   1.912       .  S
O803        C812   1.249       .  A
O803       Al810   1.926       .  S
O804       Al810   1.860       .  S
O805        C812   1.237       .  A
O806       Al810   1.785       .  S
O807        C808   1.275       .  A
C808       C1933   1.482       .  S
C809       C1216   1.499       .  S
C812       C2128   1.498       .  S
C813        O814   1.283       .  A
C813       C1192   1.447       .  S
O815        C830   1.256       .  A
O815       Al823   1.878       .  S
C816        O826   1.261       .  A
C816        O817   1.284       .  A
C816       C1360   1.484       .  S
O817       Al819   1.977       .  S
O818        C820   1.238       .  A
O818       Al819   1.780       .  S
Al819       O827   1.852       .  S
Al819       O829   1.941       .  S
Al819       O828   1.771       .  S
C820        O833   1.270       .  A
C820       C1480   1.487       .  S
O821        C831   1.268       .  A
O821       Al823   1.949       .  S
O822        C835   1.260       .  A
O822       Al832   1.852       .  S
Al823       O836   1.920       .  S
Al823       O833   1.973       .  S
Al823       O828   1.792       .  S
O824        C831   1.257       .  A
O824       Al832   1.906       .  S
O825        C834   1.254       .  A
O825       Al832   1.932       .  S
O826       Al832   1.856       .  S
O827        C834   1.238       .  A
O828       Al832   1.793       .  S
O829        C830   1.268       .  A
C830       C2776   1.479       .  S
C831       C1180   1.501       .  S
C834       C1876   1.492       .  S
C835        O836   1.275       .  A
C835       C1189   1.443       .  S
O837        C852   1.248       .  A
O837       Al845   1.844       .  S
C838        O848   1.268       .  A
C838        O839   1.291       .  A
C838       C1453   1.497       .  S
O839       Al841   1.993       .  S
O840        C842   1.241       .  A
O840       Al841   1.803       .  S
Al841       O849   1.876       .  S
Al841       O851   1.932       .  S
Al841       O850   1.767       .  S
C842        O855   1.269       .  A
C842       C1381   1.462       .  S
O843        C853   1.259       .  A
O843       Al845   1.923       .  S
O844        C857   1.268       .  A
O844       Al854   1.872       .  S
Al845       O858   1.933       .  S
Al845       O855   1.954       .  S
Al845       O850   1.773       .  S
O846        C853   1.255       .  A
O846       Al854   1.916       .  S
O847        C856   1.253       .  A
O847       Al854   1.928       .  S
O848       Al854   1.852       .  S
O849        C856   1.239       .  A
O850       Al854   1.790       .  S
O851        C852   1.268       .  A
C852       C1900   1.481       .  S
C853       C1168   1.509       .  S
C856       C1792   1.495       .  S
C857        O858   1.283       .  A
C857       C1153   1.442       .  S
O859        C874   1.261       .  A
O859       Al867   1.887       .  S
C860        O870   1.273       .  A
C860        O861   1.281       .  A
C860       C1144   1.492       .  S
O861       Al863   1.956       .  S
O862        C864   1.235       .  A
O862       Al863   1.793       .  S
Al863       O871   1.835       .  S
Al863       O873   1.919       .  S
Al863       O872   1.779       .  S
C864        O877   1.258       .  A
C864       C1348   1.456       .  S
O865        C875   1.265       .  A
O865       Al867   1.940       .  S
O866        C879   1.272       .  A
O866       Al876   1.899       .  S
Al867       O880   1.892       .  S
Al867       O877   1.929       .  S
Al867       O872   1.796       .  S
O868        C875   1.250       .  A
O868       Al876   1.868       .  S
O869        C878   1.245       .  A
O869       Al876   1.891       .  S
O870       Al876   1.892       .  S
O871        C878   1.232       .  A
O872       Al876   1.783       .  S
O873        C874   1.267       .  A
C874       C2464   1.469       .  S
C875       C1288   1.489       .  S
C878       C2188   1.471       .  S
C879        O880   1.265       .  A
C879       C1156   1.472       .  S
O881        C896   1.247       .  A
O881       Al889   1.828       .  S
C882        O892   1.262       .  A
C882        O883   1.292       .  A
C882       C1273   1.507       .  S
O883       Al885   2.008       .  S
O884        C886   1.242       .  A
O884       Al885   1.798       .  S
Al885       O893   1.895       .  S
Al885       O895   1.979       .  S
Al885       O894   1.764       .  S
C886        O899   1.263       .  A
C886       C1228   1.450       .  S
O887        C897   1.260       .  A
O887       Al889   1.916       .  S
O888        C901   1.262       .  A
O888       Al898   1.860       .  S
Al889       O902   1.917       .  S
Al889       O899   1.937       .  S
Al889       O894   1.765       .  S
O890        C897   1.261       .  A
O890       Al898   1.941       .  S
O891        C900   1.254       .  A
O891       Al898   1.916       .  S
O892       Al898   1.831       .  S
O893        C900   1.247       .  A
O894       Al898   1.782       .  S
O895        C896   1.275       .  A
C896       C2020   1.492       .  S
C897       C1141   1.485       .  S
C900       C2368   1.491       .  S
C901        O902   1.277       .  A
C901       C1132   1.433       .  S
O903        C918   1.249       .  A
O903       Al911   1.824       .  S
C904        O914   1.266       .  A
C904        O905   1.288       .  A
C904       C1177   1.511       .  S
O905       Al907   1.998       .  S
O906        C908   1.240       .  A
O906       Al907   1.819       .  S
Al907       O915   1.864       .  S
Al907       O917   1.983       .  S
Al907       O916   1.761       .  S
C908        O921   1.266       .  A
C908       C1204   1.475       .  S
O909        C919   1.269       .  A
O909       Al911   1.930       .  S
O910        C923   1.268       .  A
O910       Al920   1.879       .  S
Al911       O924   1.915       .  S
Al911       O921   1.946       .  S
Al911       O916   1.782       .  S
O912        C919   1.261       .  A
O912       Al920   1.923       .  S
O913        C922   1.257       .  A
O913       Al920   1.943       .  S
O914       Al920   1.862       .  S
O915        C922   1.241       .  A
O916       Al920   1.784       .  S
O917        C918   1.276       .  A
C918       C2284   1.492       .  S
C919       C1369   1.484       .  S
C922       C1945   1.490       .  S
C923        O924   1.270       .  A
C923       C1129   1.456       .  S
O925        C940   1.268       .  A
O925       Al933   1.915       .  S
C926        O936   1.282       .  A
C926        O927   1.274       .  A
C926       C1105   1.504       .  S
O927       Al929   1.911       .  S
O928        C930   1.247       .  A
O928       Al929   1.843       .  S
Al929       O937   1.885       .  S
Al929       O939   1.923       .  S
Al929       O938   1.787       .  S
C930        O943   1.260       .  A
C930       C1585   1.443       .  S
O931        C941   1.258       .  A
O931       Al933   1.919       .  S
O932        C945   1.267       .  A
O932       Al942   1.908       .  S
Al933       O946   1.817       .  S
Al933       O943   1.910       .  S
Al933       O938   1.788       .  S
O934        C941   1.251       .  A
O934       Al942   1.876       .  S
O935        C944   1.244       .  A
O935       Al942   1.877       .  S
O936       Al942   1.943       .  S
O937        C944   1.242       .  A
O938       Al942   1.773       .  S
O939        C940   1.273       .  A
C940       C2152   1.468   1_556  S
C941       C1093   1.484       .  S
C944       C1768   1.472       .  S
C945        O946   1.248       .  A
C945       C1117   1.458       .  S
O947        C962   1.244       .  A
O947       Al955   1.827   1_556  S
C948        O958   1.260       .  A
C948        O949   1.288       .  A
C948       C1252   1.495       .  S
O949       Al951   2.003       .  S
O950        C952   1.242       .  A
O950       Al951   1.804       .  S
Al951       O959   1.861       .  S
Al951       O961   1.969       .  S
Al951       O960   1.767       .  S
C952        O965   1.265       .  A
C952       C1549   1.455       .  S
O953        C963   1.261       .  A
O953       Al955   1.911       .  S
O954        C967   1.258       .  A
O954       Al964   1.862       .  S
Al955       O968   1.917       .  S
Al955       O965   1.943       .  S
Al955       O960   1.779       .  S
O956        C963   1.261       .  A
O956       Al964   1.934       .  S
O957        C966   1.257       .  A
O957       Al964   1.939       .  S
O958       Al964   1.847       .  S
O959        C966   1.241       .  A
O960       Al964   1.793       .  S
O961        C962   1.273   1_554  A
C962       C1756   1.496       .  S
C963       C1312   1.484       .  S
C966       C2245   1.479       .  S
C967        O968   1.276       .  A
C967       C1120   1.434       .  S
O969        C984   1.259       .  A
O969       Al977   1.865       .  S
C970        O980   1.273       .  A
C970        O971   1.292       .  A
C970       C1096   1.507       .  S
O971       Al973   1.988       .  S
O972        C974   1.238       .  A
O972       Al973   1.786       .  S
Al973       O981   1.858       .  S
Al973       O983   1.938       .  S
Al973       O982   1.763       .  S
C974        O987   1.267       .  A
C974       C1300   1.474       .  S
O975        C985   1.263       .  A
O975       Al977   1.946       .  S
O976        C989   1.271       .  A
O976       Al986   1.860       .  S
Al977       O990   1.928       .  S
Al977       O987   1.955       .  S
Al977       O982   1.774       .  S
O978        C985   1.252       .  A
O978       Al986   1.916       .  S
O979        C988   1.247       .  A
O979       Al986   1.906       .  S
O980       Al986   1.858       .  S
O981        C988   1.235       .  A
O982       Al986   1.781       .  S
O983        C984   1.268       .  A
C984       C2392   1.483   1_565  S
C985       C1069   1.500       .  S
C988       C1696   1.479       .  S
C989        O990   1.281       .  A
C989       C1081   1.451       .  S
O991       C1006   1.246       .  A
O991       Al999   1.825   1_565  S
C992       O1002   1.261       .  A
C992        O993   1.291       .  A
C992       C1165   1.492       .  S
O993       Al995   2.003       .  S
O994        C996   1.241       .  A
O994       Al995   1.802       .  S
Al995      O1003   1.871       .  S
Al995      O1005   1.965       .  S
Al995      O1004   1.768       .  S
C996       O1009   1.267       .  A
C996       C1264   1.462       .  S
O997       C1007   1.261       .  A
O997       Al999   1.918       .  S
O998       C1011   1.261       .  A
O998      Al1008   1.849       .  S
Al999      O1012   1.922       .  S
Al999      O1009   1.951       .  S
Al999      O1004   1.778       .  S
O1000      C1007   1.259       .  A
O1000     Al1008   1.925       .  S
O1001      C1010   1.255       .  A
O1001     Al1008   1.937       .  S
O1002     Al1008   1.840       .  S
O1003      C1010   1.241       .  A
O1004     Al1008   1.795       .  S
O1005      C1006   1.273   1_545  A
C1006      C1684   1.485       .  S
C1007      C1441   1.490       .  S
C1010      C2485   1.479       .  S
C1011      O1012   1.275       .  A
C1011      C1084   1.431       .  S
O1013      C1028   1.252       .  A
O1013     Al1021   1.864       .  S
C1014      O1024   1.260       .  A
C1014      O1015   1.283       .  A
C1014      C1072   1.502       .  S
O1015     Al1017   1.990       .  S
O1016      C1018   1.247       .  A
O1016     Al1017   1.837       .  S
Al1017     O1025   1.903       .  S
Al1017     O1027   1.976       .  S
Al1017     O1026   1.773       .  S
C1018      O1031   1.271       .  A
C1018      C1432   1.470       .  S
O1019      C1029   1.272       .  A
O1019     Al1021   1.944       .  S
O1020      C1033   1.262       .  A
O1020     Al1030   1.877       .  S
Al1021     O1034   1.905       .  S
Al1021     O1031   1.964       .  S
Al1021     O1026   1.780       .  S
O1022      C1029   1.255       .  A
O1022     Al1030   1.890       .  S
O1023      C1032   1.260       .  A
O1023     Al1030   1.924       .  S
O1024     Al1030   1.880       .  S
O1025      C1032   1.253       .  A
O1026     Al1030   1.781       .  S
O1027      C1028   1.274       .  A
C1028      C2629   1.484   1_655  S
C1029      C1108   1.491       .  S
C1032      C1633   1.484       .  S
C1033      O1034   1.270       .  A
C1033      C1057   1.441       .  S
O1035      C1050   1.252       .  A
O1035     Al1043   1.853       .  S
C1036      O1046   1.265       .  A
C1036      O1037   1.282       .  A
C1036      C1537   1.501       .  S
O1037     Al1039   1.979       .  S
O1038      C1040   1.246       .  A
O1038     Al1039   1.841       .  S
Al1039     O1047   1.906       .  S
Al1039     O1049   1.956       .  S
Al1039     O1048   1.770       .  S
C1040      O1053   1.273       .  A
C1040      C1408   1.499       .  S
O1041      C1051   1.278       .  A
O1041     Al1043   1.970       .  S
O1042      C1055   1.265       .  A
O1042     Al1052   1.882       .  S
Al1043     O1056   1.913       .  S
Al1043     O1053   1.979       .  S
Al1043     O1048   1.788       .  S
O1044      C1051   1.262       .  A
O1044     Al1052   1.911       .  S
O1045      C1054   1.257       .  A
O1045     Al1052   1.933       .  S
O1046     Al1052   1.866       .  S
O1047      C1054   1.250       .  A
O1048     Al1052   1.778       .  S
O1049      C1050   1.271       .  A
C1050      C1840   1.471   1_455  S
C1051      C1612   1.525       .  S
C1054      C2728   1.509       .  S
C1055      O1056   1.273       .  A
C1055      C1060   1.463       .  S
C1057      C1058   1.399       .  A
C1057      C1062   1.401       .  A
C1058      C1059   1.393   1_655  A
C1058      H1067   1.084   1_655  S
C1059      C1060   1.411       .  A
C1059      S1063   1.800       .  S
C1060      C1061   1.405   1_455  A
C1061      C1062   1.389       .  A
C1061      H1068   1.083       .  S
C1062      S1064   1.809       .  S
S1063      H1066   1.408       .  S
S1064      H1065   1.407       .  S
C1069      C1070   1.397       .  A
C1069      C1074   1.425       .  A
C1070      C1071   1.405       .  A
C1070      H1079   1.084       .  S
C1071      C1072   1.425       .  A
C1071      S1075   1.797       .  S
C1072      C1073   1.402       .  A
C1073      C1074   1.413       .  A
C1073      H1080   1.083       .  S
C1074      S1076   1.800       .  S
S1075      H1078   1.398       .  S
S1076      H1077   1.405       .  S
C1081      C1082   1.401       .  A
C1081      C1086   1.410   1_565  A
C1082      C1083   1.385       .  A
C1082      H1091   1.084       .  S
C1083      C1084   1.403   1_565  A
C1083      S1087   1.797       .  S
C1084      C1085   1.391       .  A
C1085      C1086   1.381       .  A
C1085      H1092   1.085       .  S
C1086      S1088   1.792       .  S
S1087      H1090   1.407       .  S
S1088      H1089   1.397       .  S
C1093      C1094   1.410       .  A
C1093      C1098   1.402       .  A
C1094      C1095   1.415       .  A
C1094      H1103   1.084       .  S
C1095      C1096   1.420       .  A
C1095      S1099   1.800       .  S
C1096      C1097   1.415       .  A
C1097      C1098   1.395       .  A
C1097      H1104   1.083       .  S
C1098      S1100   1.795       .  S
S1099      H1102   1.407       .  S
S1100      H1101   1.406       .  S
C1105      C1106   1.406       .  A
C1105      C1110   1.422       .  A
C1106      C1107   1.404       .  A
C1106      H1115   1.082       .  S
C1107      C1108   1.417       .  A
C1107      S1111   1.812       .  S
C1108      C1109   1.405       .  A
C1109      C1110   1.412       .  A
C1109      H1116   1.084       .  S
C1110      S1112   1.804       .  S
S1111      H1114   1.407       .  S
S1112      H1113   1.407       .  S
C1117      C1118   1.405       .  A
C1117      C1122   1.423   1_556  A
C1118      C1119   1.393       .  A
C1118      H1127   1.084       .  S
C1119      C1120   1.401   1_556  A
C1119      S1123   1.802       .  S
C1120      C1121   1.387       .  A
C1121      C1122   1.376       .  A
C1121      H1128   1.086       .  S
C1122      S1124   1.806       .  S
S1123      H1126   1.405   1_556  S
S1124      H1125   1.403       .  S
C1129      C1130   1.402       .  A
C1129      C1134   1.417       .  A
C1130      C1131   1.391       .  A
C1130      H1139   1.084       .  S
C1131      C1132   1.404       .  A
C1131      S1135   1.801       .  S
C1132      C1133   1.387       .  A
C1133      C1134   1.380       .  A
C1133      H1140   1.086       .  S
C1134      S1136   1.792       .  S
S1135      H1138   1.408       .  S
S1136      H1137   1.407       .  S
C1141      C1142   1.409       .  A
C1141      C1146   1.408       .  A
C1142      C1143   1.409       .  A
C1142      H1151   1.084       .  S
C1143      C1144   1.412       .  A
C1143      S1147   1.797       .  S
C1144      C1145   1.409       .  A
C1145      C1146   1.401       .  A
C1145      H1152   1.082       .  S
C1146      S1148   1.800       .  S
S1147      H1150   1.406       .  S
S1148      H1149   1.404       .  S
C1153      C1154   1.390       .  A
C1153      C1158   1.402       .  A
C1154      C1155   1.383       .  A
C1154      H1163   1.086       .  S
C1155      C1156   1.423       .  A
C1155      S1159   1.804       .  S
C1156      C1157   1.408       .  A
C1157      C1158   1.395       .  A
C1157      H1164   1.083       .  S
C1158      S1160   1.804       .  S
S1159      H1162   1.409       .  S
S1160      H1161   1.406       .  S
C1165      C1166   1.405       .  A
C1165      C1170   1.413       .  A
C1166      C1167   1.414       .  A
C1166      H1175   1.080       .  S
C1167      C1168   1.421       .  A
C1167      S1171   1.797       .  S
C1168      C1169   1.410       .  A
C1169      C1170   1.406       .  A
C1169      H1176   1.082       .  S
C1170      S1172   1.809       .  S
S1171      H1174   1.407       .  S
S1172      H1173   1.407       .  S
C1177      C1178   1.410       .  A
C1177      C1182   1.423       .  A
C1178      C1179   1.400       .  A
C1178      H1187   1.084       .  S
C1179      C1180   1.414       .  A
C1179      S1183   1.804       .  S
C1180      C1181   1.410       .  A
C1181      C1182   1.420       .  A
C1181      H1188   1.083       .  S
C1182      S1184   1.798       .  S
S1183      H1186   1.407       .  S
S1184      H1185   1.406       .  S
C1189      C1190   1.395       .  A
C1189      C1194   1.408       .  A
C1190      C1191   1.386       .  A
C1190      H1199   1.082       .  S
C1191      C1192   1.411       .  A
C1191      S1195   1.809       .  S
C1192      C1193   1.399       .  A
C1193      C1194   1.386       .  A
C1193      H1200   1.084       .  S
C1194      S1196   1.801       .  S
S1195      H1198   1.407       .  S
S1196      H1197   1.407       .  S
C1201      C1202   1.384       .  A
C1201      C1206   1.434       .  A
C1202      C1203   1.390       .  A
C1202      H1211   1.084       .  S
C1203      C1204   1.428       .  A
C1203      S1207   1.791       .  S
C1204      C1205   1.387       .  A
C1205      C1206   1.395       .  A
C1205      H1212   1.084       .  S
C1206      S1208   1.804       .  S
S1207      H1210   1.407       .  S
S1208      H1209   1.396       .  S
C1213      C1214   1.399       .  A
C1213      C1218   1.424       .  A
C1214      C1215   1.411       .  A
C1214      H1223   1.083       .  S
C1215      C1216   1.425       .  A
C1215      S1219   1.794       .  S
C1216      C1217   1.394       .  A
C1217      C1218   1.405       .  A
C1217      H1224   1.084       .  S
C1218      S1220   1.785       .  S
S1219      H1222   1.405       .  S
S1220      H1221   1.399       .  S
C1225      C1226   1.414       .  A
C1225      C1230   1.411       .  A
C1226      C1227   1.392   1_565  A
C1226      H1235   1.085       .  S
C1227      C1228   1.398       .  A
C1227      S1231   1.803       .  S
C1228      C1229   1.409       .  A
C1229      C1230   1.405   1_545  A
C1229      H1236   1.084       .  S
C1230      S1232   1.800       .  S
S1231      H1234   1.407       .  S
S1232      H1233   1.406       .  S
C1237      C1238   1.390       .  A
C1237      C1242   1.406       .  A
C1238      C1239   1.367       .  A
C1238      H1247   1.083       .  S
C1239      C1240   1.415       .  A
C1239      S1243   1.813       .  S
C1240      C1241   1.403       .  A
C1241      C1242   1.396       .  A
C1241      H1248   1.084       .  S
C1242      S1244   1.801       .  S
S1243      H1246   1.407       .  S
S1244      H1245   1.404       .  S
C1249      C1250   1.409       .  A
C1249      C1254   1.421       .  A
C1250      C1251   1.399       .  A
C1250      H1259   1.084       .  S
C1251      C1252   1.414       .  A
C1251      S1255   1.806       .  S
C1252      C1253   1.409       .  A
C1253      C1254   1.419       .  A
C1253      H1260   1.082       .  S
C1254      S1256   1.799       .  S
S1255      H1258   1.408       .  S
S1256      H1257   1.405       .  S
C1261      C1262   1.398       .  A
C1261      C1266   1.420       .  A
C1262      C1263   1.409       .  A
C1262      H1271   1.083   1_545  S
C1263      C1264   1.423       .  A
C1263      S1267   1.802   1_545  S
C1264      C1265   1.390       .  A
C1265      C1266   1.390       .  A
C1265      H1272   1.083       .  S
C1266      S1268   1.793       .  S
S1267      H1270   1.407       .  S
S1268      H1269   1.403       .  S
C1273      C1274   1.413       .  A
C1273      C1278   1.416       .  A
C1274      C1275   1.395       .  A
C1274      H1283   1.083       .  S
C1275      C1276   1.407       .  A
C1275      S1279   1.806       .  S
C1276      C1277   1.413       .  A
C1277      C1278   1.419       .  A
C1277      H1284   1.083       .  S
C1278      S1280   1.797       .  S
S1279      H1282   1.407       .  S
S1280      H1281   1.407       .  S
C1285      C1286   1.411       .  A
C1285      C1290   1.400       .  A
C1286      C1287   1.403       .  A
C1286      H1295   1.084       .  S
C1287      C1288   1.410       .  A
C1287      S1291   1.801       .  S
C1288      C1289   1.417       .  A
C1289      C1290   1.400       .  A
C1289      H1296   1.084       .  S
C1290      S1292   1.800       .  S
S1291      H1294   1.400       .  S
S1292      H1293   1.404       .  S
C1297      C1298   1.409   1_554  A
C1297      C1302   1.401       .  A
C1298      C1299   1.406       .  A
C1298      H1307   1.082   1_556  S
C1299      C1300   1.412       .  A
C1299      S1303   1.800       .  S
C1300      C1301   1.411       .  A
C1301      C1302   1.394   1_556  A
C1301      H1308   1.082       .  S
C1302      S1304   1.801       .  S
S1303      H1306   1.406       .  S
S1304      H1305   1.407       .  S
C1309      C1310   1.419       .  A
C1309      C1314   1.418       .  A
C1310      C1311   1.397       .  A
C1310      H1319   1.081       .  S
C1311      C1312   1.402       .  A
C1311      S1315   1.807       .  S
C1312      C1313   1.412       .  A
C1313      C1314   1.416       .  A
C1313      H1320   1.084       .  S
C1314      S1316   1.800       .  S
S1315      H1318   1.406       .  S
S1316      H1317   1.404       .  S
C1321      C1322   1.396       .  A
C1321      C1326   1.417       .  A
C1322      C1323   1.401       .  A
C1322      H1331   1.083       .  S
C1323      C1324   1.433       .  A
C1323      S1327   1.806       .  S
C1324      C1325   1.412       .  A
C1325      C1326   1.418       .  A
C1325      H1332   1.083       .  S
C1326      S1328   1.798       .  S
S1327      H1330   1.408       .  S
S1328      H1329   1.404       .  S
C1333      C1334   1.401       .  A
C1333      C1338   1.405   1_545  A
C1334      C1335   1.383       .  A
C1334      H1343   1.084       .  S
C1335      C1336   1.402   1_545  A
C1335      S1339   1.800       .  S
C1336      C1337   1.397       .  A
C1337      C1338   1.383       .  A
C1337      H1344   1.085       .  S
C1338      S1340   1.792       .  S
S1339      H1342   1.406   1_545  S
S1340      H1341   1.407       .  S
C1345      C1346   1.402       .  A
C1345      C1350   1.412       .  A
C1346      C1347   1.393       .  A
C1346      H1355   1.085       .  S
C1347      C1348   1.411       .  A
C1347      S1351   1.805       .  S
C1348      C1349   1.403       .  A
C1349      C1350   1.401       .  A
C1349      H1356   1.084       .  S
C1350      S1352   1.804       .  S
S1351      H1354   1.407       .  S
S1352      H1353   1.406       .  S
C1357      C1358   1.414       .  A
C1357      C1362   1.421       .  A
C1358      C1359   1.404       .  A
C1358      H1367   1.083       .  S
C1359      C1360   1.408       .  A
C1359      S1363   1.803       .  S
C1360      C1361   1.407       .  A
C1361      C1362   1.411       .  A
C1361      H1368   1.084       .  S
C1362      S1364   1.800       .  S
S1363      H1366   1.407       .  S
S1364      H1365   1.408       .  S
C1369      C1370   1.413       .  A
C1369      C1374   1.405       .  A
C1370      C1371   1.413       .  A
C1370      H1379   1.084       .  S
C1371      C1372   1.413       .  A
C1371      S1375   1.800       .  S
C1372      C1373   1.415       .  A
C1373      C1374   1.400       .  A
C1373      H1380   1.083       .  S
C1374      S1376   1.805       .  S
S1375      H1378   1.406       .  S
S1376      H1377   1.405       .  S
C1381      C1382   1.414       .  A
C1381      C1386   1.400       .  A
C1382      C1383   1.410   1_655  A
C1382      H1391   1.084       .  S
C1383      C1384   1.410       .  A
C1383      S1387   1.801       .  S
C1384      C1385   1.410       .  A
C1385      C1386   1.392   1_455  A
C1385      H1392   1.081       .  S
C1386      S1388   1.798       .  S
S1387      H1390   1.404       .  S
S1388      H1389   1.406       .  S
C1393      C1394   1.407       .  A
C1393      C1398   1.412       .  A
C1394      C1395   1.389       .  A
C1394      H1403   1.084       .  S
C1395      C1396   1.400       .  A
C1395      S1399   1.804       .  S
C1396      C1397   1.394       .  A
C1397      C1398   1.381       .  A
C1397      H1404   1.084       .  S
C1398      S1400   1.812       .  S
S1399      H1402   1.406       .  S
S1400      H1401   1.405       .  S
C1405      C1406   1.419       .  A
C1405      C1410   1.402       .  A
C1406      C1407   1.411       .  A
C1406      H1415   1.084       .  S
C1407      C1408   1.407       .  A
C1407      S1411   1.801       .  S
C1408      C1409   1.418       .  A
C1409      C1410   1.404       .  A
C1409      H1416   1.083       .  S
C1410      S1412   1.800       .  S
S1411      H1414   1.406       .  S
S1412      H1413   1.405       .  S
C1417      C1418   1.414       .  A
C1417      C1422   1.422       .  A
C1418      C1419   1.407       .  A
C1418      H1427   1.083       .  S
C1419      C1420   1.413       .  A
C1419      S1423   1.804       .  S
C1420      C1421   1.409       .  A
C1421      C1422   1.415       .  A
C1421      H1428   1.084       .  S
C1422      S1424   1.796       .  S
S1423      H1426   1.406       .  S
S1424      H1425   1.407       .  S
C1429      C1430   1.415   1_545  A
C1429      C1434   1.405   1_545  A
C1430      C1431   1.397       .  A
C1430      H1439   1.083       .  S
C1431      C1432   1.400       .  A
C1431      S1435   1.801       .  S
C1432      C1433   1.414       .  A
C1433      C1434   1.403       .  A
C1433      H1440   1.083       .  S
C1434      S1436   1.801   1_565  S
S1435      H1438   1.407       .  S
S1436      H1437   1.407       .  S
C1441      C1442   1.402       .  A
C1441      C1446   1.417       .  A
C1442      C1443   1.402       .  A
C1442      H1451   1.084       .  S
C1443      C1444   1.420       .  A
C1443      S1447   1.804       .  S
C1444      C1445   1.407       .  A
C1445      C1446   1.409       .  A
C1445      H1452   1.084       .  S
C1446      S1448   1.800       .  S
S1447      H1450   1.408       .  S
S1448      H1449   1.405       .  S
C1453      C1454   1.416       .  A
C1453      C1458   1.410       .  A
C1454      C1455   1.404       .  A
C1454      H1463   1.083       .  S
C1455      C1456   1.402       .  A
C1455      S1459   1.807       .  S
C1456      C1457   1.413       .  A
C1457      C1458   1.410       .  A
C1457      H1464   1.084       .  S
C1458      S1460   1.797       .  S
S1459      H1462   1.407       .  S
S1460      H1461   1.406       .  S
C1465      C1466   1.391       .  A
C1465      C1470   1.402       .  A
C1466      C1467   1.389       .  A
C1466      H1475   1.084       .  S
C1467      C1468   1.418   1_455  A
C1467      S1471   1.808       .  S
C1468      C1469   1.404       .  A
C1469      C1470   1.389   1_655  A
C1469      H1476   1.084       .  S
C1470      S1472   1.803   1_455  S
S1471      H1474   1.407       .  S
S1472      H1473   1.407   1_655  S
C1477      C1478   1.414       .  A
C1477      C1482   1.401       .  A
C1478      C1479   1.409       .  A
C1478      H1487   1.077       .  S
C1479      C1480   1.411       .  A
C1479      S1483   1.799       .  S
C1480      C1481   1.414       .  A
C1481      C1482   1.393       .  A
C1481      H1488   1.085       .  S
C1482      S1484   1.798       .  S
S1483      H1486   1.406       .  S
S1484      H1485   1.407       .  S
C1489      C1490   1.419       .  A
C1489      C1494   1.416       .  A
C1490      C1491   1.409       .  A
C1490      H1499   1.084       .  S
C1491      C1492   1.408       .  A
C1491      S1495   1.802       .  S
C1492      C1493   1.415       .  A
C1493      C1494   1.419       .  A
C1493      H1500   1.084       .  S
C1494      S1496   1.796       .  S
S1495      H1498   1.406       .  S
S1496      H1497   1.407       .  S
C1501      C1502   1.394       .  A
C1501      C1506   1.425       .  A
C1502      C1503   1.401       .  A
C1502      H1511   1.084       .  S
C1503      C1504   1.428       .  A
C1503      S1507   1.796       .  S
C1504      C1505   1.403       .  A
C1505      C1506   1.414       .  A
C1505      H1512   1.083       .  S
C1506      S1508   1.798       .  S
S1507      H1510   1.385       .  S
S1508      H1509   1.404       .  S
C1513      C1514   1.415       .  A
C1513      C1518   1.396       .  A
C1514      C1515   1.411       .  A
C1514      H1523   1.084       .  S
C1515      C1516   1.412   1_556  A
C1515      S1519   1.799   1_556  S
C1516      C1517   1.423   1_554  A
C1517      C1518   1.392       .  A
C1517      H1524   1.084       .  S
C1518      S1520   1.806       .  S
S1519      H1522   1.405       .  S
S1520      H1521   1.406       .  S
C1525      C1526   1.400       .  A
C1525      C1530   1.412       .  A
C1526      C1527   1.381       .  A
C1526      H1535   1.085       .  S
C1527      C1528   1.406       .  A
C1527      S1531   1.804       .  S
C1528      C1529   1.396       .  A
C1529      C1530   1.389       .  A
C1529      H1536   1.084       .  S
C1530      S1532   1.801       .  S
S1531      H1534   1.399       .  S
S1532      H1533   1.405       .  S
C1537      C1538   1.405       .  A
C1537      C1542   1.421       .  A
C1538      C1539   1.398       .  A
C1538      H1547   1.084       .  S
C1539      C1540   1.417       .  A
C1539      S1543   1.800       .  S
C1540      C1541   1.408       .  A
C1541      C1542   1.414       .  A
C1541      H1548   1.083       .  S
C1542      S1544   1.798       .  S
S1543      H1546   1.404       .  S
S1544      H1545   1.406       .  S
C1549      C1550   1.412   1_554  A
C1549      C1554   1.397       .  A
C1550      C1551   1.407       .  A
C1550      H1559   1.084       .  S
C1551      C1552   1.409   1_556  A
C1551      S1555   1.799       .  S
C1552      C1553   1.414       .  A
C1553      C1554   1.392       .  A
C1553      H1560   1.085       .  S
C1554      S1556   1.802       .  S
S1555      H1558   1.405       .  S
S1556      H1557   1.407       .  S
C1561      C1562   1.415       .  A
C1561      C1566   1.408       .  A
C1562      C1563   1.420       .  A
C1562      H1571   1.083       .  S
C1563      C1564   1.419       .  A
C1563      S1567   1.799       .  S
C1564      C1565   1.420       .  A
C1565      C1566   1.403       .  A
C1565      H1572   1.083       .  S
C1566      S1568   1.804       .  S
S1567      H1570   1.407       .  S
S1568      H1569   1.406       .  S
C1573      C1574   1.413       .  A
C1573      C1578   1.407       .  A
C1574      C1575   1.418       .  A
C1574      H1583   1.084       .  S
C1575      C1576   1.419       .  A
C1575      S1579   1.797       .  S
C1576      C1577   1.418       .  A
C1577      C1578   1.399       .  A
C1577      H1584   1.083       .  S
C1578      S1580   1.805       .  S
S1579      H1582   1.406       .  S
S1580      H1581   1.407       .  S
C1585      C1586   1.407       .  A
C1585      C1590   1.395       .  A
C1586      C1587   1.397   1_655  A
C1586      H1595   1.085       .  S
C1587      C1588   1.407       .  A
C1587      S1591   1.802       .  S
C1588      C1589   1.411       .  A
C1589      C1590   1.390   1_455  A
C1589      H1596   1.084       .  S
C1590      S1592   1.801       .  S
S1591      H1594   1.405       .  S
S1592      H1593   1.406       .  S
C1597      C1598   1.413       .  A
C1597      C1602   1.409       .  A
C1598      C1599   1.420       .  A
C1598      H1607   1.083       .  S
C1599      C1600   1.419       .  A
C1599      S1603   1.797       .  S
C1600      C1601   1.413       .  A
C1601      C1602   1.394       .  A
C1601      H1608   1.083       .  S
C1602      S1604   1.807       .  S
S1603      H1606   1.395       .  S
S1604      H1605   1.408       .  S
C1609      C1610   1.414       .  A
C1609      C1614   1.407       .  A
C1610      C1611   1.420       .  A
C1610      H1619   1.083       .  S
C1611      C1612   1.419       .  A
C1611      S1615   1.797       .  S
C1612      C1613   1.420       .  A
C1613      C1614   1.406       .  A
C1613      H1620   1.083       .  S
C1614      S1616   1.804       .  S
S1615      H1618   1.407       .  S
S1616      H1617   1.407       .  S
C1621      C1622   1.405   1_556  A
C1621      C1626   1.415       .  A
C1622      C1623   1.388   1_554  A
C1622      H1631   1.084       .  S
C1623      C1624   1.400       .  A
C1623      S1627   1.803       .  S
C1624      C1625   1.391       .  A
C1625      C1626   1.378       .  A
C1625      H1632   1.085       .  S
C1626      S1628   1.815       .  S
S1627      H1630   1.406       .  S
S1628      H1629   1.407       .  S
C1633      C1634   1.400       .  A
C1633      C1638   1.415       .  A
C1634      C1635   1.395       .  A
C1634      H1643   1.081       .  S
C1635      C1636   1.417       .  A
C1635      S1639   1.806       .  S
C1636      C1637   1.408       .  A
C1637      C1638   1.411       .  A
C1637      H1644   1.083       .  S
C1638      S1640   1.802       .  S
S1639      H1642   1.407       .  S
S1640      H1641   1.406       .  S
C1645      C1646   1.409       .  A
C1645      C1650   1.408       .  A
C1646      C1647   1.400       .  A
C1646      H1655   1.084       .  S
C1647      C1648   1.411       .  A
C1647      S1651   1.801       .  S
C1648      C1649   1.411       .  A
C1649      C1650   1.392       .  A
C1649      H1656   1.084       .  S
C1650      S1652   1.801       .  S
S1651      H1654   1.408       .  S
S1652      H1653   1.407       .  S
C1657      C1658   1.413       .  A
C1657      C1662   1.409       .  A
C1658      C1659   1.395       .  A
C1658      H1667   1.084       .  S
C1659      C1660   1.405       .  A
C1659      S1663   1.804       .  S
C1660      C1661   1.409       .  A
C1661      C1662   1.402       .  A
C1661      H1668   1.081       .  S
C1662      S1664   1.801       .  S
S1663      H1666   1.407       .  S
S1664      H1665   1.408       .  S
C1669      C1670   1.394       .  A
C1669      C1674   1.396       .  A
C1670      C1671   1.382       .  A
C1670      H1679   1.086       .  S
C1671      C1672   1.417       .  A
C1671      S1675   1.804       .  S
C1672      C1673   1.410       .  A
C1673      C1674   1.387       .  A
C1673      H1680   1.081       .  S
C1674      S1676   1.803       .  S
S1675      H1678   1.409       .  S
S1676      H1677   1.407       .  S
C1681      C1682   1.394       .  A
C1681      C1686   1.418       .  A
C1682      C1683   1.391       .  A
C1682      H1691   1.084       .  S
C1683      C1684   1.428       .  A
C1683      S1687   1.811       .  S
C1684      C1685   1.403       .  A
C1685      C1686   1.407       .  A
C1685      H1692   1.083       .  S
C1686      S1688   1.802       .  S
S1687      H1690   1.399       .  S
S1688      H1689   1.407       .  S
C1693      C1694   1.416       .  A
C1693      C1698   1.411       .  A
C1694      C1695   1.390       .  A
C1694      H1703   1.083       .  S
C1695      C1696   1.404       .  A
C1695      S1699   1.804       .  S
C1696      C1697   1.412       .  A
C1697      C1698   1.404       .  A
C1697      H1704   1.082       .  S
C1698      S1700   1.799       .  S
S1699      H1702   1.408       .  S
S1700      H1701   1.407       .  S
C1705      C1706   1.401       .  A
C1705      C1710   1.423       .  A
C1706      C1707   1.405       .  A
C1706      H1715   1.084       .  S
C1707      C1708   1.415       .  A
C1707      S1711   1.795       .  S
C1708      C1709   1.397       .  A
C1709      C1710   1.401       .  A
C1709      H1716   1.084       .  S
C1710      S1712   1.800       .  S
S1711      H1714   1.406       .  S
S1712      H1713   1.407       .  S
C1717      C1718   1.415       .  A
C1717      C1722   1.413       .  A
C1718      C1719   1.409       .  A
C1718      H1727   1.083       .  S
C1719      C1720   1.408       .  A
C1719      S1723   1.796       .  S
C1720      C1721   1.410       .  A
C1721      C1722   1.395       .  A
C1721      H1728   1.082       .  S
C1722      S1724   1.810       .  S
S1723      H1726   1.407       .  S
S1724      H1725   1.406       .  S
C1729      C1730   1.386       .  A
C1729      C1734   1.422       .  A
C1730      C1731   1.389       .  A
C1730      H1739   1.085       .  S
C1731      C1732   1.426       .  A
C1731      S1735   1.790       .  S
C1732      C1733   1.401       .  A
C1733      C1734   1.410       .  A
C1733      H1740   1.083       .  S
C1734      S1736   1.803       .  S
S1735      H1738   1.393       .  S
S1736      H1737   1.406       .  S
C1741      C1742   1.402       .  A
C1741      C1746   1.411       .  A
C1742      C1743   1.392       .  A
C1742      H1751   1.084       .  S
C1743      C1744   1.406       .  A
C1743      S1747   1.798       .  S
C1744      C1745   1.389       .  A
C1745      C1746   1.381       .  A
C1745      H1752   1.085       .  S
C1746      S1748   1.786       .  S
S1747      H1750   1.402       .  S
S1748      H1749   1.404       .  S
C1753      C1754   1.393       .  A
C1753      C1758   1.418       .  A
C1754      C1755   1.392       .  A
C1754      H1763   1.085       .  S
C1755      C1756   1.433       .  A
C1755      S1759   1.806       .  S
C1756      C1757   1.403       .  A
C1757      C1758   1.406       .  A
C1757      H1764   1.083       .  S
C1758      S1760   1.796       .  S
S1759      H1762   1.394       .  S
S1760      H1761   1.408       .  S
C1765      C1766   1.413       .  A
C1765      C1770   1.416       .  A
C1766      C1767   1.391       .  A
C1766      H1775   1.083       .  S
C1767      C1768   1.404       .  A
C1767      S1771   1.805       .  S
C1768      C1769   1.407       .  A
C1769      C1770   1.407       .  A
C1769      H1776   1.084       .  S
C1770      S1772   1.799       .  S
S1771      H1774   1.408       .  S
S1772      H1773   1.407       .  S
C1777      C1778   1.400       .  A
C1777      C1782   1.435       .  A
C1778      C1779   1.411       .  A
C1778      H1787   1.084       .  S
C1779      C1780   1.430       .  A
C1779      S1783   1.798       .  S
C1780      C1781   1.394       .  A
C1781      C1782   1.394       .  A
C1781      H1788   1.084       .  S
C1782      S1784   1.806       .  S
S1783      H1786   1.407       .  S
S1784      H1785   1.407       .  S
C1789      C1790   1.417       .  A
C1789      C1794   1.411       .  A
C1790      C1791   1.390       .  A
C1790      H1799   1.083       .  S
C1791      C1792   1.407       .  A
C1791      S1795   1.801       .  S
C1792      C1793   1.418       .  A
C1793      C1794   1.414       .  A
C1793      H1800   1.083       .  S
C1794      S1796   1.797       .  S
S1795      H1798   1.407       .  S
S1796      H1797   1.407       .  S
C1801      C1802   1.408       .  A
C1801      C1806   1.421       .  A
C1802      C1803   1.395       .  A
C1802      H1811   1.084       .  S
C1803      C1804   1.415       .  A
C1803      S1807   1.806       .  S
C1804      C1805   1.408       .  A
C1805      C1806   1.416       .  A
C1805      H1812   1.084       .  S
C1806      S1808   1.796       .  S
S1807      H1810   1.403       .  S
S1808      H1809   1.406       .  S
C1813      C1814   1.396       .  A
C1813      C1818   1.419       .  A
C1814      C1815   1.409       .  A
C1814      H1823   1.084       .  S
C1815      C1816   1.435       .  A
C1815      S1819   1.810       .  S
C1816      C1817   1.408       .  A
C1817      C1818   1.414       .  A
C1817      H1824   1.083       .  S
C1818      S1820   1.801       .  S
S1819      H1822   1.407       .  S
S1820      H1821   1.405       .  S
C1825      C1826   1.397       .  A
C1825      C1830   1.403       .  A
C1826      C1827   1.383       .  A
C1826      H1835   1.083       .  S
C1827      C1828   1.406       .  A
C1827      S1831   1.800       .  S
C1828      C1829   1.395       .  A
C1829      C1830   1.384       .  A
C1829      H1836   1.083       .  S
C1830      S1832   1.798       .  S
S1831      H1834   1.406       .  S
S1832      H1833   1.403       .  S
C1837      C1838   1.400       .  A
C1837      C1842   1.414       .  A
C1838      C1839   1.403       .  A
C1838      H1847   1.084       .  S
C1839      C1840   1.415       .  A
C1839      S1843   1.803       .  S
C1840      C1841   1.400       .  A
C1841      C1842   1.401       .  A
C1841      H1848   1.084       .  S
C1842      S1844   1.796       .  S
S1843      H1846   1.406   1_655  S
S1844      H1845   1.405       .  S
C1849      C1850   1.411       .  A
C1849      C1854   1.410       .  A
C1850      C1851   1.398       .  A
C1850      H1859   1.084       .  S
C1851      C1852   1.413       .  A
C1851      S1855   1.801       .  S
C1852      C1853   1.415       .  A
C1853      C1854   1.403       .  A
C1853      H1860   1.083       .  S
C1854      S1856   1.800       .  S
S1855      H1858   1.408       .  S
S1856      H1857   1.406       .  S
C1861      C1862   1.404       .  A
C1861      C1866   1.420       .  A
C1862      C1863   1.409       .  A
C1862      H1871   1.084       .  S
C1863      C1864   1.419       .  A
C1863      S1867   1.804       .  S
C1864      C1865   1.405       .  A
C1865      C1866   1.414       .  A
C1865      H1872   1.083       .  S
C1866      S1868   1.800       .  S
S1867      H1870   1.404       .  S
S1868      H1869   1.404       .  S
C1873      C1874   1.410       .  A
C1873      C1878   1.406       .  A
C1874      C1875   1.400       .  A
C1874      H1883   1.083       .  S
C1875      C1876   1.411       .  A
C1875      S1879   1.802       .  S
C1876      C1877   1.416       .  A
C1877      C1878   1.403       .  A
C1877      H1884   1.083       .  S
C1878      S1880   1.802       .  S
S1879      H1882   1.408       .  S
S1880      H1881   1.407   1_455  S
C1885      C1886   1.397       .  A
C1885      C1890   1.406       .  A
C1886      C1887   1.371   1_655  A
C1886      H1895   1.083       .  S
C1887      C1888   1.406       .  A
C1887      S1891   1.807       .  S
C1888      C1889   1.404       .  A
C1889      C1890   1.396   1_455  A
C1889      H1896   1.084       .  S
C1890      S1892   1.801       .  S
S1891      H1894   1.407       .  S
S1892      H1893   1.407       .  S
C1897      C1898   1.392       .  A
C1897      C1902   1.418       .  A
C1898      C1899   1.389       .  A
C1898      H1907   1.085       .  S
C1899      C1900   1.427       .  A
C1899      S1903   1.804       .  S
C1900      C1901   1.402       .  A
C1901      C1902   1.399       .  A
C1901      H1908   1.084       .  S
C1902      S1904   1.804       .  S
S1903      H1906   1.393       .  S
S1904      H1905   1.406       .  S
C1909      C1910   1.411       .  A
C1909      C1914   1.412       .  A
C1910      C1911   1.415       .  A
C1910      H1919   1.084       .  S
C1911      C1912   1.417       .  A
C1911      S1915   1.801       .  S
C1912      C1913   1.412       .  A
C1913      C1914   1.408       .  A
C1913      H1920   1.084       .  S
C1914      S1916   1.804       .  S
S1915      H1918   1.407       .  S
S1916      H1917   1.405       .  S
C1921      C1922   1.421       .  A
C1921      C1926   1.420       .  A
C1922      C1923   1.409       .  A
C1922      H1931   1.083       .  S
C1923      C1924   1.410       .  A
C1923      S1927   1.803       .  S
C1924      C1925   1.416       .  A
C1925      C1926   1.420       .  A
C1925      H1932   1.082       .  S
C1926      S1928   1.799       .  S
S1927      H1930   1.407       .  S
S1928      H1929   1.405       .  S
C1933      C1934   1.407       .  A
C1933      C1938   1.413       .  A
C1934      C1935   1.409       .  A
C1934      H1943   1.084       .  S
C1935      C1936   1.416       .  A
C1935      S1939   1.802       .  S
C1936      C1937   1.405       .  A
C1937      C1938   1.404       .  A
C1937      H1944   1.084       .  S
C1938      S1940   1.803       .  S
S1939      H1942   1.407       .  S
S1940      H1941   1.406       .  S
C1945      C1946   1.411       .  A
C1945      C1950   1.411       .  A
C1946      C1947   1.402       .  A
C1946      H1955   1.080       .  S
C1947      C1948   1.407       .  A
C1947      S1951   1.800   1_554  S
C1948      C1949   1.410       .  A
C1949      C1950   1.403       .  A
C1949      H1956   1.084       .  S
C1950      S1952   1.802       .  S
S1951      H1954   1.406       .  S
S1952      H1953   1.407       .  S
C1957      C1958   1.388       .  A
C1957      C1962   1.397       .  A
C1958      C1959   1.376       .  A
C1958      H1967   1.085       .  S
C1959      C1960   1.417       .  A
C1959      S1963   1.812       .  S
C1960      C1961   1.404       .  A
C1961      C1962   1.384       .  A
C1961      H1968   1.084   1_556  S
C1962      S1964   1.803       .  S
S1963      H1966   1.407       .  S
S1964      H1965   1.408       .  S
C1969      C1970   1.415       .  A
C1969      C1974   1.416       .  A
C1970      C1971   1.394       .  A
C1970      H1979   1.084       .  S
C1971      C1972   1.405       .  A
C1971      S1975   1.805       .  S
C1972      C1973   1.408       .  A
C1973      C1974   1.409       .  A
C1973      H1980   1.084       .  S
C1974      S1976   1.798       .  S
S1975      H1978   1.407       .  S
S1976      H1977   1.408       .  S
C1981      C1982   1.411       .  A
C1981      C1986   1.412       .  A
C1982      C1983   1.399       .  A
C1982      H1991   1.082       .  S
C1983      C1984   1.407       .  A
C1983      S1987   1.804       .  S
C1984      C1985   1.411       .  A
C1985      C1986   1.409       .  A
C1985      H1992   1.084       .  S
C1986      S1988   1.800       .  S
S1987      H1990   1.407       .  S
S1988      H1989   1.407       .  S
C1993      C1994   1.413       .  A
C1993      C1998   1.409       .  A
C1994      C1995   1.416       .  A
C1994      H2003   1.082       .  S
C1995      C1996   1.419       .  A
C1995      S1999   1.797       .  S
C1996      C1997   1.419       .  A
C1997      C1998   1.406       .  A
C1997      H2004   1.083       .  S
C1998      S2000   1.804       .  S
S1999      H2002   1.407       .  S
S2000      H2001   1.407       .  S
C2005      C2006   1.394       .  A
C2005      C2010   1.422       .  A
C2006      C2007   1.400       .  A
C2006      H2015   1.084       .  S
C2007      C2008   1.437       .  A
C2007      S2011   1.803       .  S
C2008      C2009   1.405       .  A
C2009      C2010   1.420       .  A
C2009      H2016   1.082       .  S
C2010      S2012   1.794       .  S
S2011      H2014   1.408       .  S
S2012      H2013   1.406       .  S
C2017      C2018   1.395       .  A
C2017      C2022   1.421       .  A
C2018      C2019   1.390       .  A
C2018      H2027   1.084       .  S
C2019      C2020   1.428       .  A
C2019      S2023   1.807       .  S
C2020      C2021   1.403       .  A
C2021      C2022   1.410       .  A
C2021      H2028   1.083       .  S
C2022      S2024   1.797       .  S
S2023      H2026   1.407       .  S
S2024      H2025   1.405       .  S
C2029      C2030   1.409   1_565  A
C2029      C2034   1.410   1_565  A
C2030      C2031   1.401       .  A
C2030      H2039   1.083       .  S
C2031      C2032   1.412       .  A
C2031      S2035   1.803       .  S
C2032      C2033   1.415       .  A
C2033      C2034   1.410       .  A
C2033      H2040   1.083       .  S
C2034      S2036   1.802   1_545  S
S2035      H2038   1.407       .  S
S2036      H2037   1.406       .  S
C2041      C2042   1.391       .  A
C2041      C2046   1.401       .  A
C2042      C2043   1.376       .  A
C2042      H2051   1.085       .  S
C2043      C2044   1.415       .  A
C2043      S2047   1.805       .  S
C2044      C2045   1.407       .  A
C2045      C2046   1.386       .  A
C2045      H2052   1.084   1_565  S
C2046      S2048   1.809       .  S
S2047      H2050   1.405       .  S
S2048      H2049   1.404       .  S
C2053      C2054   1.414       .  A
C2053      C2058   1.415       .  A
C2054      C2055   1.413       .  A
C2054      H2063   1.083       .  S
C2055      C2056   1.416       .  A
C2055      S2059   1.797       .  S
C2056      C2057   1.414       .  A
C2057      C2058   1.395       .  A
C2057      H2064   1.083       .  S
C2058      S2060   1.804       .  S
S2059      H2062   1.403       .  S
S2060      H2061   1.405       .  S
C2065      C2066   1.418       .  A
C2065      C2070   1.398       .  A
C2066      C2067   1.407       .  A
C2066      H2075   1.083       .  S
C2067      C2068   1.406   1_565  A
C2067      S2071   1.798   1_565  S
C2068      C2069   1.424   1_545  A
C2069      C2070   1.401       .  A
C2069      H2076   1.083       .  S
C2070      S2072   1.800       .  S
S2071      H2074   1.407       .  S
S2072      H2073   1.405   1_455  S
C2077      C2078   1.391       .  A
C2077      C2082   1.421       .  A
C2078      C2079   1.394       .  A
C2078      H2087   1.085       .  S
C2079      C2080   1.427       .  A
C2079      S2083   1.795       .  S
C2080      C2081   1.403       .  A
C2081      C2082   1.409       .  A
C2081      H2088   1.083       .  S
C2082      S2084   1.799       .  S
S2083      H2086   1.404       .  S
S2084      H2085   1.406       .  S
C2089      C2090   1.405       .  A
C2089      C2094   1.415       .  A
C2090      C2091   1.397       .  A
C2090      H2099   1.085       .  S
C2091      C2092   1.422       .  A
C2091      S2095   1.803       .  S
C2092      C2093   1.415       .  A
C2093      C2094   1.414       .  A
C2093      H2100   1.083       .  S
C2094      S2096   1.799       .  S
S2095      H2098   1.409       .  S
S2096      H2097   1.406       .  S
C2101      C2102   1.400       .  A
C2101      C2106   1.420       .  A
C2102      C2103   1.396       .  A
C2102      H2111   1.084       .  S
C2103      C2104   1.426       .  A
C2103      S2107   1.803       .  S
C2104      C2105   1.406       .  A
C2105      C2106   1.408       .  A
C2105      H2112   1.083   1_554  S
C2106      S2108   1.802       .  S
S2107      H2110   1.408       .  S
S2108      H2109   1.408       .  S
C2113      C2114   1.399       .  A
C2113      C2118   1.419       .  A
C2114      C2115   1.399       .  A
C2114      H2123   1.084       .  S
C2115      C2116   1.417       .  A
C2115      S2119   1.804   1_655  S
C2116      C2117   1.389       .  A
C2117      C2118   1.392       .  A
C2117      H2124   1.084       .  S
C2118      S2120   1.798       .  S
S2119      H2122   1.407       .  S
S2120      H2121   1.407       .  S
C2125      C2126   1.415       .  A
C2125      C2130   1.414       .  A
C2126      C2127   1.404       .  A
C2126      H2135   1.081       .  S
C2127      C2128   1.412       .  A
C2127      S2131   1.809       .  S
C2128      C2129   1.413       .  A
C2129      C2130   1.406       .  A
C2129      H2136   1.084       .  S
C2130      S2132   1.799       .  S
S2131      H2134   1.406       .  S
S2132      H2133   1.407   1_455  S
C2137      C2138   1.408   1_655  A
C2137      C2142   1.411       .  A
C2138      C2139   1.384       .  A
C2138      H2147   1.082       .  S
C2139      C2140   1.397       .  A
C2139      S2143   1.807       .  S
C2140      C2141   1.397       .  A
C2141      C2142   1.395   1_455  A
C2141      H2148   1.081       .  S
C2142      S2144   1.801       .  S
S2143      H2146   1.406       .  S
S2144      H2145   1.408       .  S
C2149      C2150   1.408       .  A
C2149      C2154   1.407       .  A
C2150      C2151   1.401       .  A
C2150      H2159   1.083       .  S
C2151      C2152   1.408       .  A
C2151      S2155   1.805   1_554  S
C2152      C2153   1.405       .  A
C2153      C2154   1.398       .  A
C2153      H2160   1.080       .  S
C2154      S2156   1.804       .  S
S2155      H2158   1.404       .  S
S2156      H2157   1.406       .  S
C2161      C2162   1.416       .  A
C2161      C2166   1.416       .  A
C2162      C2163   1.402       .  A
C2162      H2171   1.083       .  S
C2163      C2164   1.404       .  A
C2163      S2167   1.803       .  S
C2164      C2165   1.406       .  A
C2165      C2166   1.400       .  A
C2165      H2172   1.085       .  S
C2166      S2168   1.801       .  S
S2167      H2170   1.406       .  S
S2168      H2169   1.408       .  S
C2173      C2174   1.381       .  A
C2173      C2178   1.421       .  A
C2174      C2175   1.396       .  A
C2174      H2183   1.084       .  S
C2175      C2176   1.442       .  A
C2175      S2179   1.807       .  S
C2176      C2177   1.399       .  A
C2177      C2178   1.403       .  A
C2177      H2184   1.083       .  S
C2178      S2180   1.803       .  S
S2179      H2182   1.408       .  S
S2180      H2181   1.407       .  S
C2185      C2186   1.413       .  A
C2185      C2190   1.407       .  A
C2186      C2187   1.388       .  A
C2186      H2195   1.084       .  S
C2187      C2188   1.404       .  A
C2187      S2191   1.805       .  S
C2188      C2189   1.412       .  A
C2189      C2190   1.400       .  A
C2189      H2196   1.084       .  S
C2190      S2192   1.798       .  S
S2191      H2194   1.408       .  S
S2192      H2193   1.407       .  S
C2197      C2198   1.413       .  A
C2197      C2202   1.411       .  A
C2198      C2199   1.419       .  A
C2198      H2207   1.084       .  S
C2199      C2200   1.420       .  A
C2199      S2203   1.799       .  S
C2200      C2201   1.417       .  A
C2201      C2202   1.405       .  A
C2201      H2208   1.083       .  S
C2202      S2204   1.805       .  S
S2203      H2206   1.407       .  S
S2204      H2205   1.406       .  S
C2209      C2210   1.411       .  A
C2209      C2214   1.403       .  A
C2210      C2211   1.409       .  A
C2210      H2219   1.084       .  S
C2211      C2212   1.412       .  A
C2211      S2215   1.800       .  S
C2212      C2213   1.416       .  A
C2213      C2214   1.401       .  A
C2213      H2220   1.084       .  S
C2214      S2216   1.803       .  S
S2215      H2218   1.407       .  S
S2216      H2217   1.406       .  S
C2221      C2222   1.399       .  A
C2221      C2226   1.418       .  A
C2222      C2223   1.385       .  A
C2222      H2231   1.085       .  S
C2223      C2224   1.411       .  A
C2223      S2227   1.790       .  S
C2224      C2225   1.412       .  A
C2225      C2226   1.421       .  A
C2225      H2232   1.083       .  S
C2226      S2228   1.802       .  S
S2227      H2230   1.401       .  S
S2228      H2229   1.406       .  S
C2233      C2234   1.408   1_554  A
C2233      C2238   1.403   1_554  A
C2234      C2235   1.411       .  A
C2234      H2243   1.084   1_556  S
C2235      C2236   1.415       .  A
C2235      S2239   1.801       .  S
C2236      C2237   1.407       .  A
C2237      C2238   1.383       .  A
C2237      H2244   1.080       .  S
C2238      S2240   1.795   1_556  S
S2239      H2242   1.406       .  S
S2240      H2241   1.405       .  S
C2245      C2246   1.410       .  A
C2245      C2250   1.407       .  A
C2246      C2247   1.402       .  A
C2246      H2255   1.084       .  S
C2247      C2248   1.409       .  A
C2247      S2251   1.808       .  S
C2248      C2249   1.406       .  A
C2249      C2250   1.401       .  A
C2249      H2256   1.082       .  S
C2250      S2252   1.803       .  S
S2251      H2254   1.400       .  S
S2252      H2253   1.406       .  S
C2257      C2258   1.398       .  A
C2257      C2262   1.418       .  A
C2258      C2259   1.403       .  A
C2258      H2267   1.081       .  S
C2259      C2260   1.429       .  A
C2259      S2263   1.800       .  S
C2260      C2261   1.406       .  A
C2261      C2262   1.413       .  A
C2261      H2268   1.081       .  S
C2262      S2264   1.799       .  S
S2263      H2266   1.407       .  S
S2264      H2265   1.404       .  S
C2269      C2270   1.390       .  A
C2269      C2274   1.409       .  A
C2270      C2271   1.382       .  A
C2270      H2279   1.084       .  S
C2271      C2272   1.422       .  A
C2271      S2275   1.813       .  S
C2272      C2273   1.397       .  A
C2273      C2274   1.384       .  A
C2273      H2280   1.084       .  S
C2274      S2276   1.797       .  S
S2275      H2278   1.407       .  S
S2276      H2277   1.389       .  S
C2281      C2282   1.416       .  A
C2281      C2286   1.412       .  A
C2282      C2283   1.412       .  A
C2282      H2291   1.083       .  S
C2283      C2284   1.409       .  A
C2283      S2287   1.796       .  S
C2284      C2285   1.410       .  A
C2285      C2286   1.394       .  A
C2285      H2292   1.085       .  S
C2286      S2288   1.802       .  S
S2287      H2290   1.405       .  S
S2288      H2289   1.408       .  S
C2293      C2294   1.391       .  A
C2293      C2298   1.422       .  A
C2294      C2295   1.389       .  A
C2294      H2303   1.081       .  S
C2295      C2296   1.419   1_655  A
C2295      S2299   1.801   1_655  S
C2296      C2297   1.392       .  A
C2297      C2298   1.400   1_455  A
C2297      H2304   1.083   1_554  S
C2298      S2300   1.803   1_554  S
S2299      H2302   1.404       .  S
S2300      H2301   1.407   1_655  S
C2305      C2306   1.397       .  A
C2305      C2310   1.419       .  A
C2306      C2307   1.390       .  A
C2306      H2315   1.084       .  S
C2307      C2308   1.426       .  A
C2307      S2311   1.812       .  S
C2308      C2309   1.404       .  A
C2309      C2310   1.407       .  A
C2309      H2316   1.084       .  S
C2310      S2312   1.802       .  S
S2311      H2314   1.397       .  S
S2312      H2313   1.407       .  S
C2317      C2318   1.398       .  A
C2317      C2322   1.427       .  A
C2318      C2319   1.409       .  A
C2318      H2327   1.084       .  S
C2319      C2320   1.430       .  A
C2319      S2323   1.799       .  S
C2320      C2321   1.391       .  A
C2321      C2322   1.399       .  A
C2321      H2328   1.084       .  S
C2322      S2324   1.788       .  S
S2323      H2326   1.408       .  S
S2324      H2325   1.380       .  S
C2329      C2330   1.402       .  A
C2329      C2334   1.424       .  A
C2330      C2331   1.411       .  A
C2330      H2339   1.083       .  S
C2331      C2332   1.422       .  A
C2331      S2335   1.799       .  S
C2332      C2333   1.390       .  A
C2333      C2334   1.396       .  A
C2333      H2340   1.081       .  S
C2334      S2336   1.788       .  S
S2335      H2338   1.407       .  S
S2336      H2337   1.391       .  S
C2341      C2342   1.403       .  A
C2341      C2346   1.415       .  A
C2342      C2343   1.406       .  A
C2342      H2351   1.080       .  S
C2343      C2344   1.415       .  A
C2343      S2347   1.803       .  S
C2344      C2345   1.399       .  A
C2345      C2346   1.399       .  A
C2345      H2352   1.083       .  S
C2346      S2348   1.808       .  S
S2347      H2350   1.407       .  S
S2348      H2349   1.408       .  S
C2353      C2354   1.405       .  A
C2353      C2358   1.415       .  A
C2354      C2355   1.409       .  A
C2354      H2363   1.083       .  S
C2355      C2356   1.417       .  A
C2355      S2359   1.803   1_556  S
C2356      C2357   1.395       .  A
C2357      C2358   1.391       .  A
C2357      H2364   1.067       .  S
C2358      S2360   1.808       .  S
S2359      H2362   1.407       .  S
S2360      H2361   1.407       .  S
C2365      C2366   1.412   1_556  A
C2365      C2370   1.410   1_556  A
C2366      C2367   1.385       .  A
C2366      H2375   1.083       .  S
C2367      C2368   1.410       .  A
C2367      S2371   1.806       .  S
C2368      C2369   1.418       .  A
C2369      C2370   1.415       .  A
C2369      H2376   1.083       .  S
C2370      S2372   1.798   1_554  S
S2371      H2374   1.408       .  S
S2372      H2373   1.407       .  S
C2377      C2378   1.396   1_556  A
C2377      C2382   1.404       .  A
C2378      C2379   1.391   1_554  A
C2378      H2387   1.084       .  S
C2379      C2380   1.410       .  A
C2379      S2383   1.788   1_556  S
C2380      C2381   1.399       .  A
C2381      C2382   1.378       .  A
C2381      H2388   1.076       .  S
C2382      S2384   1.802       .  S
S2383      H2386   1.404   1_554  S
S2384      H2385   1.407       .  S
C2389      C2390   1.412       .  A
C2389      C2394   1.421       .  A
C2390      C2391   1.410       .  A
C2390      H2399   1.083       .  S
C2391      C2392   1.414       .  A
C2391      S2395   1.799   1_545  S
C2392      C2393   1.400       .  A
C2393      C2394   1.390       .  A
C2393      H2400   1.084       .  S
C2394      S2396   1.799       .  S
S2395      H2398   1.407       .  S
S2396      H2397   1.399       .  S
C2401      C2402   1.399       .  A
C2401      C2406   1.424       .  A
C2402      C2403   1.406       .  A
C2402      H2411   1.084       .  S
C2403      C2404   1.424       .  A
C2403      S2407   1.789       .  S
C2404      C2405   1.400       .  A
C2405      C2406   1.402       .  A
C2405      H2412   1.084       .  S
C2406      S2408   1.797       .  S
S2407      H2410   1.399       .  S
S2408      H2409   1.389       .  S
C2413      C2414   1.406       .  A
C2413      C2418   1.411       .  A
C2414      C2415   1.394       .  A
C2414      H2423   1.079       .  S
C2415      C2416   1.403       .  A
C2415      S2419   1.799       .  S
C2416      C2417   1.408       .  A
C2417      C2418   1.406       .  A
C2417      H2424   1.084       .  S
C2418      S2420   1.803       .  S
S2419      H2422   1.407       .  S
S2420      H2421   1.406       .  S
C2425      C2426   1.403       .  A
C2425      C2430   1.424       .  A
C2426      C2427   1.408       .  A
C2426      H2435   1.083       .  S
C2427      C2428   1.420       .  A
C2427      S2431   1.798       .  S
C2428      C2429   1.400       .  A
C2429      C2430   1.407       .  A
C2429      H2436   1.084       .  S
C2430      S2432   1.802       .  S
S2431      H2434   1.404       .  S
S2432      H2433   1.408       .  S
C2437      C2438   1.398       .  A
C2437      C2442   1.425       .  A
C2438      C2439   1.409       .  A
C2438      H2447   1.082       .  S
C2439      C2440   1.423       .  A
C2439      S2443   1.789       .  S
C2440      C2441   1.405       .  A
C2441      C2442   1.412       .  A
C2441      H2448   1.083       .  S
C2442      S2444   1.799       .  S
S2443      H2446   1.406       .  S
S2444      H2445   1.407       .  S
C2449      C2450   1.411       .  A
C2449      C2454   1.413       .  A
C2450      C2451   1.414       .  A
C2450      H2459   1.082       .  S
C2451      C2452   1.419       .  A
C2451      S2455   1.800       .  S
C2452      C2453   1.414       .  A
C2453      C2454   1.407       .  A
C2453      H2460   1.083       .  S
C2454      S2456   1.803       .  S
S2455      H2458   1.407       .  S
S2456      H2457   1.407       .  S
C2461      C2462   1.399       .  A
C2461      C2466   1.411       .  A
C2462      C2463   1.403       .  A
C2462      H2471   1.084       .  S
C2463      C2464   1.416       .  A
C2463      S2467   1.801       .  S
C2464      C2465   1.397       .  A
C2465      C2466   1.398       .  A
C2465      H2472   1.084       .  S
C2466      S2468   1.791       .  S
S2467      H2470   1.404       .  S
S2468      H2469   1.407       .  S
C2473      C2474   1.410       .  A
C2473      C2478   1.400       .  A
C2474      C2475   1.402       .  A
C2474      H2483   1.085       .  S
C2475      C2476   1.410   1_565  A
C2475      S2479   1.800   1_565  S
C2476      C2477   1.411   1_545  A
C2477      C2478   1.391       .  A
C2477      H2484   1.085       .  S
C2478      S2480   1.800       .  S
S2479      H2482   1.401       .  S
S2480      H2481   1.407       .  S
C2485      C2486   1.404       .  A
C2485      C2490   1.414       .  A
C2486      C2487   1.400       .  A
C2486      H2495   1.085       .  S
C2487      C2488   1.412       .  A
C2487      S2491   1.805       .  S
C2488      C2489   1.407       .  A
C2489      C2490   1.409       .  A
C2489      H2496   1.083       .  S
C2490      S2492   1.804       .  S
S2491      H2494   1.406       .  S
S2492      H2493   1.403       .  S
C2497      C2498   1.397       .  A
C2497      C2502   1.411       .  A
C2498      C2499   1.385       .  A
C2498      H2507   1.084       .  S
C2499      C2500   1.405       .  A
C2499      S2503   1.795       .  S
C2500      C2501   1.393       .  A
C2501      C2502   1.376       .  A
C2501      H2508   1.086       .  S
C2502      S2504   1.804       .  S
S2503      H2506   1.404       .  S
S2504      H2505   1.407       .  S
C2509      C2510   1.415       .  A
C2509      C2514   1.415       .  A
C2510      C2511   1.395       .  A
C2510      H2519   1.083       .  S
C2511      C2512   1.406       .  A
C2511      S2515   1.804       .  S
C2512      C2513   1.409       .  A
C2513      C2514   1.405       .  A
C2513      H2520   1.084       .  S
C2514      S2516   1.798       .  S
S2515      H2518   1.407       .  S
S2516      H2517   1.407       .  S
C2521      C2522   1.400       .  A
C2521      C2526   1.432       .  A
C2522      C2523   1.411       .  A
C2522      H2531   1.083       .  S
C2523      C2524   1.430       .  A
C2523      S2527   1.800       .  S
C2524      C2525   1.394       .  A
C2525      C2526   1.399       .  A
C2525      H2532   1.085       .  S
C2526      S2528   1.802       .  S
S2527      H2530   1.387       .  S
S2528      H2529   1.395       .  S
C2533      C2534   1.400       .  A
C2533      C2538   1.425       .  A
C2534      C2535   1.405       .  A
C2534      H2543   1.084   1_546  S
C2535      C2536   1.418       .  A
C2535      S2539   1.801   1_545  S
C2536      C2537   1.392       .  A
C2537      C2538   1.393       .  A
C2537      H2544   1.085       .  S
C2538      S2540   1.800       .  S
S2539      H2542   1.407       .  S
S2540      H2541   1.399   1_556  S
C2545      C2546   1.415       .  A
C2545      C2550   1.412       .  A
C2546      C2547   1.411       .  A
C2546      H2555   1.083       .  S
C2547      C2548   1.412       .  A
C2547      S2551   1.800       .  S
C2548      C2549   1.410       .  A
C2549      C2550   1.393       .  A
C2549      H2556   1.084       .  S
C2550      S2552   1.799       .  S
S2551      H2554   1.403       .  S
S2552      H2553   1.405       .  S
C2557      C2558   1.412       .  A
C2557      C2562   1.408       .  A
C2558      C2559   1.404       .  A
C2558      H2567   1.084       .  S
C2559      C2560   1.407       .  A
C2559      S2563   1.804       .  S
C2560      C2561   1.408       .  A
C2561      C2562   1.402       .  A
C2561      H2568   1.082       .  S
C2562      S2564   1.801       .  S
S2563      H2566   1.406       .  S
S2564      H2565   1.405   1_455  S
C2569      C2570   1.418       .  A
C2569      C2574   1.414       .  A
C2570      C2571   1.420       .  A
C2570      H2579   1.083       .  S
C2571      C2572   1.417       .  A
C2571      S2575   1.797       .  S
C2572      C2573   1.417       .  A
C2573      C2574   1.397       .  A
C2573      H2580   1.083       .  S
C2574      S2576   1.805       .  S
S2575      H2578   1.401       .  S
S2576      H2577   1.401       .  S
C2581      C2582   1.411       .  A
C2581      C2586   1.428       .  A
C2582      C2583   1.408       .  A
C2582      H2591   1.083       .  S
C2583      C2584   1.415       .  A
C2583      S2587   1.798       .  S
C2584      C2585   1.401       .  A
C2585      C2586   1.407       .  A
C2585      H2592   1.084       .  S
C2586      S2588   1.802       .  S
S2587      H2590   1.405       .  S
S2588      H2589   1.408       .  S
C2593      C2594   1.405       .  A
C2593      C2598   1.405       .  A
C2594      C2595   1.389       .  A
C2594      H2603   1.083       .  S
C2595      C2596   1.403       .  A
C2595      S2599   1.792       .  S
C2596      C2597   1.411       .  A
C2597      C2598   1.402       .  A
C2597      H2604   1.084       .  S
C2598      S2600   1.801       .  S
S2599      H2602   1.407       .  S
S2600      H2601   1.406       .  S
C2605      C2606   1.402       .  A
C2605      C2610   1.423       .  A
C2606      C2607   1.398       .  A
C2606      H2615   1.084       .  S
C2607      C2608   1.414       .  A
C2607      S2611   1.800       .  S
C2608      C2609   1.403       .  A
C2609      C2610   1.410       .  A
C2609      H2616   1.084       .  S
C2610      S2612   1.801       .  S
S2611      H2614   1.407   1_545  S
S2612      H2613   1.408       .  S
C2617      C2618   1.407       .  A
C2617      C2622   1.419   1_565  A
C2618      C2619   1.383       .  A
C2618      H2627   1.083       .  S
C2619      C2620   1.398   1_565  A
C2619      S2623   1.800       .  S
C2620      C2621   1.390       .  A
C2621      C2622   1.382       .  A
C2621      H2628   1.085       .  S
C2622      S2624   1.797       .  S
S2623      H2626   1.406       .  S
S2624      H2625   1.392       .  S
C2629      C2630   1.405       .  A
C2629      C2634   1.413       .  A
C2630      C2631   1.413       .  A
C2630      H2639   1.084       .  S
C2631      C2632   1.422       .  A
C2631      S2635   1.800       .  S
C2632      C2633   1.404       .  A
C2633      C2634   1.395       .  A
C2633      H2640   1.084       .  S
C2634      S2636   1.796       .  S
S2635      H2638   1.408       .  S
S2636      H2637   1.406       .  S
C2641      C2642   1.412       .  A
C2641      C2646   1.405       .  A
C2642      C2643   1.413       .  A
C2642      H2651   1.084       .  S
C2643      C2644   1.411       .  A
C2643      S2647   1.801       .  S
C2644      C2645   1.410       .  A
C2645      C2646   1.399       .  A
C2645      H2652   1.083       .  S
C2646      S2648   1.804       .  S
S2647      H2650   1.406       .  S
S2648      H2649   1.406       .  S
C2653      C2654   1.406       .  A
C2653      C2658   1.412       .  A
C2654      C2655   1.411       .  A
C2654      H2663   1.083       .  S
C2655      C2656   1.418       .  A
C2655      S2659   1.803       .  S
C2656      C2657   1.385       .  A
C2657      C2658   1.386       .  A
C2657      H2664   1.083       .  S
C2658      S2660   1.780       .  S
S2659      H2662   1.406       .  S
S2660      H2661   1.408       .  S
C2665      C2666   1.400       .  A
C2665      C2670   1.424       .  A
C2666      C2667   1.405       .  A
C2666      H2675   1.084       .  S
C2667      C2668   1.426       .  A
C2667      S2671   1.798       .  S
C2668      C2669   1.399       .  A
C2669      C2670   1.402       .  A
C2669      H2676   1.084       .  S
C2670      S2672   1.801       .  S
S2671      H2674   1.404       .  S
S2672      H2673   1.408       .  S
C2677      C2678   1.414       .  A
C2677      C2682   1.418       .  A
C2678      C2679   1.407       .  A
C2678      H2687   1.083       .  S
C2679      C2680   1.412       .  A
C2679      S2683   1.803       .  S
C2680      C2681   1.409       .  A
C2681      C2682   1.409       .  A
C2681      H2688   1.082       .  S
C2682      S2684   1.801       .  S
S2683      H2686   1.407       .  S
S2684      H2685   1.408       .  S
C2689      C2690   1.413       .  A
C2689      C2694   1.413       .  A
C2690      C2691   1.399       .  A
C2690      H2699   1.083       .  S
C2691      C2692   1.410       .  A
C2691      S2695   1.804       .  S
C2692      C2693   1.410       .  A
C2693      C2694   1.411       .  A
C2693      H2700   1.084       .  S
C2694      S2696   1.797       .  S
S2695      H2698   1.397       .  S
S2696      H2697   1.407       .  S
C2701      C2702   1.401       .  A
C2701      C2706   1.424       .  A
C2702      C2703   1.394       .  A
C2702      H2711   1.084       .  S
C2703      C2704   1.425       .  A
C2703      S2707   1.808       .  S
C2704      C2705   1.404       .  A
C2705      C2706   1.412       .  A
C2705      H2712   1.081       .  S
C2706      S2708   1.799       .  S
S2707      H2710   1.394       .  S
S2708      H2709   1.408       .  S
C2713      C2714   1.391       .  A
C2713      C2718   1.416       .  A
C2714      C2715   1.391   1_455  A
C2714      H2723   1.085       .  S
C2715      C2716   1.425       .  A
C2715      S2719   1.803       .  S
C2716      C2717   1.398       .  A
C2717      C2718   1.397   1_655  A
C2717      H2724   1.084       .  S
C2718      S2720   1.805       .  S
S2719      H2722   1.397       .  S
S2720      H2721   1.407       .  S
C2725      C2726   1.410       .  A
C2725      C2730   1.412       .  A
C2726      C2727   1.402       .  A
C2726      H2735   1.084       .  S
C2727      C2728   1.418       .  A
C2727      S2731   1.801       .  S
C2728      C2729   1.416       .  A
C2729      C2730   1.413       .  A
C2729      H2736   1.083       .  S
C2730      S2732   1.799       .  S
S2731      H2734   1.408       .  S
S2732      H2733   1.407       .  S
C2737      C2738   1.412       .  A
C2737      C2742   1.413       .  A
C2738      C2739   1.413       .  A
C2738      H2747   1.084       .  S
C2739      C2740   1.413       .  A
C2739      S2743   1.801       .  S
C2740      C2741   1.410       .  A
C2741      C2742   1.413       .  A
C2741      H2748   1.082       .  S
C2742      S2744   1.802       .  S
S2743      H2746   1.406       .  S
S2744      H2745   1.407       .  S
C2749      C2750   1.409       .  A
C2749      C2754   1.419       .  A
C2750      C2751   1.401       .  A
C2750      H2759   1.081       .  S
C2751      C2752   1.411       .  A
C2751      S2755   1.804       .  S
C2752      C2753   1.410       .  A
C2753      C2754   1.416       .  A
C2753      H2760   1.084       .  S
C2754      S2756   1.801       .  S
S2755      H2758   1.407       .  S
S2756      H2757   1.407       .  S
C2761      C2762   1.399       .  A
C2761      C2766   1.399       .  A
C2762      C2763   1.377       .  A
C2762      H2771   1.084       .  S
C2763      C2764   1.401       .  A
C2763      S2767   1.811       .  S
C2764      C2765   1.397       .  A
C2765      C2766   1.381       .  A
C2765      H2772   1.085       .  S
C2766      S2768   1.795       .  S
S2767      H2770   1.408       .  S
S2768      H2769   1.405       .  S
C2773      C2774   1.405       .  A
C2773      C2778   1.419       .  A
C2774      C2775   1.406       .  A
C2774      H2783   1.084       .  S
C2775      C2776   1.413       .  A
C2775      S2779   1.803       .  S
C2776      C2777   1.399       .  A
C2777      C2778   1.404       .  A
C2777      H2784   1.084       .  S
C2778      S2780   1.805       .  S
S2779      H2782   1.405       .  S
S2780      H2781   1.397       .  S
