geometry optimzed in LAMMPS
_audit_creation_date              2020-12-01 
_audit_creation_method            'lammps2cif' 
_symmetry_space_group_name_H-M    'P1' 
_symmetry_Int_Tables_number       1 
_symmetry_cell_setting            triclinic 
loop_ 
_symmetry_equiv_pos_as_xyz 
  x,y,z 
_cell_length_a                    27.55436012 
_cell_length_b                    27.534950872139433 
_cell_length_c                    27.556113518702052 
_cell_angle_alpha                 89.99968835080689 
_cell_angle_beta                  90.09661662086465 
_cell_angle_gamma                 90.01635757389768 
loop_ 
_atom_site_label 
_atom_site_type_symbol 
_atom_site_fract_x 
_atom_site_fract_y 
_atom_site_fract_z 
_atom_site_charge 
O1          O  0.04551565  0.28855387  0.44736808    -0.74100
O2          O  0.95078343  0.28441557  0.54914025    -0.74100
O3          O  0.04930066  0.28943253  0.54551771    -0.74200
O4          O  0.94776265  0.28462371  0.45109699    -0.74200
O5          O  0.95126985  0.20360957  0.45047497    -0.74200
O6          O  0.05230817  0.20848961  0.54703811    -0.74100
O7          O  0.95400901  0.20366963  0.54898000    -0.74100
O8          O  0.04917072  0.20753217  0.44821778    -0.74200
Ni9        Ni  0.99824686  0.28960116  0.49836990     1.25400
Ni10       Ni  0.00188469  0.20289753  0.49875049     1.25400
C11         C  0.06243546  0.24852877  0.43086898     0.88100
C12         C  0.93628835  0.24327143  0.56555419     0.88000
C13         C  0.06749842  0.24997079  0.56197733     0.88000
C14         C  0.93300340  0.24360300  0.43514031     0.88200
C15         C  0.27227888  0.20616202  0.23670474     0.02600
C16         C  0.23547033  0.20530570  0.27262100     0.02600
C17         C  0.19867548  0.24120490  0.27242796     0.02600
C18         C  0.19926095  0.27843951  0.23704213     0.02600
C19         C  0.23453664  0.27767347  0.19970285     0.02600
C20         C  0.27102388  0.24124578  0.19906144     0.02600
C21         C  0.79241242  0.24310380  0.72011640     0.02600
C22         C  0.75581533  0.20686983  0.72156169     0.02600
C23         C  0.72386581  0.20412707  0.76165734     0.02600
C24         C  0.72680099  0.23864933  0.79977105     0.02600
C25         C  0.76297153  0.27544287  0.79825082     0.02600
C26         C  0.79671568  0.27687676  0.75904638     0.02600
O27         O  0.44042492  0.04677885  0.29105043    -0.74100
O28         O  0.54441566  0.95344094  0.29192701    -0.74100
O29         O  0.53869667  0.05119864  0.29424401    -0.74200
O30         O  0.44626490  0.94779818  0.28981583    -0.74200
O31         O  0.44726018  0.94962665  0.20881513    -0.74200
O32         O  0.54102696  0.05274343  0.21328216    -0.74100
O33         O  0.54568629  0.95534032  0.21119735    -0.74100
O34         O  0.44260700  0.04788871  0.21006013    -0.74200
Ni35       Ni  0.49220548  0.99975661  0.29467446     1.25400
Ni36       Ni  0.49409096  0.00145445  0.20797528     1.25400
C37         C  0.42480835  0.06281516  0.25018593     0.88100
C38         C  0.56284079  0.93971132  0.25149395     0.88000
C39         C  0.55557453  0.06838203  0.25462017     0.88000
C40         C  0.43196541  0.93140207  0.24876410     0.88200
C41         C  0.72316068  0.80268998  0.23735180     0.02600
C42         C  0.76000077  0.80185383  0.27360290     0.02600
C43         C  0.79435036  0.76346682  0.27431894     0.02600
C44         C  0.79193061  0.72570739  0.23959046     0.02600
C45         C  0.75678523  0.72747094  0.20198034     0.02600
C46         C  0.72205829  0.76580725  0.20099791     0.02600
O47         O  0.04542339  0.79427133  0.45071287    -0.74100
O48         O  0.94673235  0.79421610  0.54940187    -0.74100
O49         O  0.04481858  0.79461120  0.54880170    -0.74200
O50         O  0.94734595  0.79462936  0.45029329    -0.74200
O51         O  0.94650622  0.71360017  0.45032140    -0.74200
O52         O  0.04519121  0.71381758  0.54927181    -0.74100
O53         O  0.94634647  0.71315585  0.54882622    -0.74100
O54         O  0.04522174  0.71318572  0.45134975    -0.74200
Ni55       Ni  0.99590224  0.79728973  0.49981057     1.25400
Ni56       Ni  0.99569147  0.71052686  0.49994969     1.25400
C57         C  0.06193685  0.75352753  0.43549007     0.88100
C58         C  0.93079215  0.75357213  0.56561892     0.88000
C59         C  0.06167789  0.75452862  0.56497756     0.88000
C60         C  0.93137031  0.75433366  0.43352448     0.88200
C61         C  0.21179528  0.71730281  0.74831195     0.02600
C62         C  0.21423472  0.75215983  0.71054681     0.02600
C63         C  0.25204943  0.78715234  0.71028464     0.02600
C64         C  0.28974116  0.78455732  0.74517265     0.02600
C65         C  0.28830012  0.74840681  0.78168695     0.02600
C66         C  0.24887644  0.71561754  0.78398955     0.02600
O67         O  0.54961294  0.95002458  0.79789264    -0.74100
O68         O  0.45178318  0.04949889  0.79361985    -0.74100
O69         O  0.45115412  0.95116595  0.79398302    -0.74200
O70         O  0.54994668  0.04809908  0.79839882    -0.74200
O71         O  0.55296597  0.04850522  0.71746529    -0.74200
O72         O  0.45443154  0.95052665  0.71320690    -0.74100
O73         O  0.45529276  0.04900790  0.71293949    -0.74100
O74         O  0.55234048  0.94987300  0.71691027    -0.74200
Ni75       Ni  0.50045092  0.99964576  0.79886147     1.25400
Ni76       Ni  0.50386491  0.99945606  0.71224774     1.25400
C77         C  0.56702219  0.93379927  0.75794065     0.88100
C78         C  0.43777179  0.06608889  0.75243777     0.88000
C79         C  0.43644528  0.93482780  0.75309940     0.88000
C80         C  0.56746950  0.06448685  0.75870906     0.88200
O81         O  0.28868468  0.45447567  0.94994738    -0.74100
O82         O  0.28323731  0.55094041  0.04949539    -0.74100
O83         O  0.28481066  0.45283887  0.04794850    -0.74200
O84         O  0.28635358  0.55244519  0.95082850    -0.74200
O85         O  0.20537704  0.55193226  0.94899270    -0.74200
O86         O  0.20399972  0.45077113  0.04398974    -0.74100
O87         O  0.20224567  0.54920853  0.04739356    -0.74100
O88         O  0.20794329  0.45334119  0.94578921    -0.74200
Ni89       Ni  0.28862447  0.50283536  0.99968168     1.25400
Ni90       Ni  0.20197521  0.50130817  0.99642723     1.25400
C91         C  0.24942825  0.43783072  0.93138723     0.88100
C92         C  0.24206517  0.56542073  0.06526495     0.88000
C93         C  0.24406717  0.43534603  0.06179196     0.88000
C94         C  0.24605500  0.56820887  0.93366025     0.88200
O95         O  0.70914796  0.44772583  0.95401027    -0.74100
O96         O  0.70588181  0.54951494  0.04978255    -0.74100
O97         O  0.70934236  0.54599710  0.95149027    -0.74200
O98         O  0.70448550  0.45085839  0.05247555    -0.74200
O99         O  0.78546348  0.44809353  0.05417537    -0.74200
O100        O  0.79021918  0.54744188  0.95669937    -0.74100
O101        O  0.78656736  0.54648922  0.05430672    -0.74100
O102        O  0.78995378  0.44921508  0.95627841    -0.74200
Ni103      Ni  0.70425164  0.49848110  0.00185737     1.25400
Ni104      Ni  0.79088049  0.49773160  0.00552310     1.25400
C105        C  0.75037183  0.43229679  0.93881116     0.88100
C106        C  0.74610017  0.56490710  0.06764650     0.88000
C107        C  0.75045937  0.56276506  0.93803681     0.88000
C108        C  0.74407593  0.43354162  0.06951077     0.88200
C109        C  0.78930311  0.71401979  0.75552789     0.02600
C110        C  0.78756966  0.75020263  0.71904867     0.02600
C111        C  0.75155485  0.78671466  0.72079636     0.02600
C112        C  0.71561418  0.78568678  0.75740550     0.02600
C113        C  0.71699614  0.74930250  0.79362116     0.02600
C114        C  0.75333593  0.71297415  0.79215448     0.02600
O115        O  0.71207796  0.94853656  0.45333321    -0.74100
O116        O  0.71038272  0.04634367  0.55261634    -0.74100
O117        O  0.71137332  0.04693388  0.45460806    -0.74200
O118        O  0.71049433  0.94795460  0.55157894    -0.74200
O119        O  0.79129913  0.94757781  0.55279059    -0.74200
O120        O  0.79223737  0.04787945  0.45602445    -0.74100
O121        O  0.79139044  0.04547823  0.55459700    -0.74100
O122        O  0.79311260  0.94996472  0.45404544    -0.74200
Ni123      Ni  0.70819925  0.99737060  0.50300001     1.25400
Ni124      Ni  0.79491493  0.99768853  0.50440968     1.25400
C125        C  0.75302528  0.93389686  0.43694700     0.88100
C126        C  0.75073711  0.06159878  0.57006542     0.88000
C127        C  0.75183684  0.06374027  0.43921358     0.88000
C128        C  0.75050111  0.93153685  0.56843936     0.88200
C129        C  0.70548952  0.21490305  0.25749898     0.02600
C130        C  0.74303816  0.21402617  0.29240859     0.02600
C131        C  0.77981590  0.24993436  0.29163191     0.02600
C132        C  0.77743307  0.28840788  0.25733066     0.02600
C133        C  0.73875470  0.29022505  0.22318086     0.02600
C134        C  0.70322728  0.25300241  0.22311773     0.02600
O135        O  0.94496878  0.54967350  0.28754651    -0.74100
O136        O  0.04224037  0.44989184  0.28490628    -0.74100
O137        O  0.04325217  0.54794102  0.28678231    -0.74200
O138        O  0.94401408  0.45169153  0.28581184    -0.74200
O139        O  0.94256317  0.45337467  0.20511805    -0.74200
O140        O  0.04359335  0.54953500  0.20608057    -0.74100
O141        O  0.04054381  0.45091647  0.20403652    -0.74100
O142        O  0.94546482  0.55203239  0.20656180    -0.74200
Ni143      Ni  0.99363841  0.49976875  0.28910448     1.25400
Ni144      Ni  0.99298644  0.50153108  0.20252658     1.25400
C145        C  0.92968570  0.56745501  0.24739894     0.88100
C146        C  0.05693725  0.43355171  0.24393089     0.88000
C147        C  0.06028698  0.56447650  0.24684769     0.88000
C148        C  0.92669722  0.43653121  0.24543249     0.88200
C149        C  0.29271346  0.77482853  0.25945250     0.02600
C150        C  0.25846930  0.77492932  0.29774331     0.02600
C151        C  0.22159910  0.73880672  0.29942698     0.02600
C152        C  0.22006736  0.70188905  0.26304376     0.02600
C153        C  0.25612209  0.70072806  0.22586819     0.02600
C154        C  0.29246316  0.73721676  0.22447654     0.02600
O155        O  0.29219637  0.95329749  0.44965377    -0.74100
O156        O  0.29043081  0.05258300  0.54610985    -0.74100
O157        O  0.29192106  0.95404589  0.54771857    -0.74200
O158        O  0.29000291  0.05142421  0.44797033    -0.74200
O159        O  0.20930124  0.04927927  0.44770890    -0.74200
O160        O  0.21087597  0.95326992  0.54823549    -0.74100
O161        O  0.20938259  0.05127835  0.54654769    -0.74100
O162        O  0.21135587  0.95103377  0.44982111    -0.74200
Ni163      Ni  0.29400107  0.00292247  0.49794468     1.25400
Ni164      Ni  0.20731437  0.00121877  0.49807921     1.25400
C165        C  0.25222387  0.93579969  0.43364281     0.88100
C166        C  0.24980498  0.06826310  0.56206513     0.88000
C167        C  0.25162147  0.93766901  0.56414998     0.88000
C168        C  0.24930613  0.06604355  0.43088789     0.88200
C169        C  0.22649800  0.26107689  0.70030901     0.02600
C170        C  0.26081651  0.22298914  0.70277656     0.02600
C171        C  0.29881104  0.22453581  0.73750537     0.02600
C172        C  0.30063615  0.26295607  0.77216714     0.02600
C173        C  0.26462193  0.30005687  0.77138727     0.02600
C174        C  0.22785285  0.29902023  0.73504114     0.02600
O175        O  0.05117272  0.44997685  0.70891670    -0.74100
O176        O  0.95237436  0.54701205  0.71065511    -0.74100
O177        O  0.05070918  0.54839119  0.70936255    -0.74200
O178        O  0.95308952  0.44861981  0.71086274    -0.74200
O179        O  0.95488368  0.44875410  0.79188104    -0.74200
O180        O  0.05172299  0.54866983  0.79037316    -0.74100
O181        O  0.95359653  0.54759042  0.79141565    -0.74100
O182        O  0.05301184  0.44980701  0.78992495    -0.74200
Ni183      Ni  0.00176589  0.49850510  0.70708875     1.25400
Ni184      Ni  0.00333241  0.49867489  0.79381923     1.25400
C185        C  0.06813301  0.43377349  0.74897609     0.88100
C186        C  0.93669349  0.56356600  0.75103299     0.88000
C187        C  0.06695335  0.56505638  0.74969121     0.88000
C188        C  0.93832347  0.43217429  0.75174858     0.88200
O189        O  0.55112714  0.29007933  0.95376442    -0.74100
O190        O  0.44770665  0.28757523  0.04703414    -0.74100
O191        O  0.54564097  0.28823185  0.05219376    -0.74200
O192        O  0.45251314  0.28923686  0.94873639    -0.74200
O193        O  0.45299619  0.20815942  0.94722421    -0.74200
O194        O  0.54638717  0.20730046  0.05038158    -0.74100
O195        O  0.44812886  0.20665311  0.04534183    -0.74100
O196        O  0.55160415  0.20903167  0.95239699    -0.74200
Ni197      Ni  0.49922405  0.29168401  0.00041341     1.25400
Ni198      Ni  0.49979227  0.20491823  0.99875655     1.25400
C199        C  0.56847647  0.24990849  0.93797242     0.88100
C200        C  0.43106029  0.24670280  0.06179633     0.88000
C201        C  0.56139328  0.24750642  0.06825605     0.88000
C202        C  0.43723695  0.24888580  0.93131660     0.88200
O203        O  0.54717846  0.70661196  0.95283062    -0.74100
O204        O  0.44828440  0.70582380  0.05028856    -0.74100
O205        O  0.44897033  0.70458064  0.95136394    -0.74200
O206        O  0.54655091  0.70784449  0.05104292    -0.74200
O207        O  0.54529636  0.78891180  0.04904689    -0.74200
O208        O  0.44653343  0.78555667  0.95156376    -0.74100
O209        O  0.44695278  0.78663202  0.04969782    -0.74100
O210        O  0.54505343  0.78753883  0.95121588    -0.74200
Ni211      Ni  0.49768748  0.70329968  0.00143056     1.25400
Ni212      Ni  0.49581150  0.79001895  0.00034353     1.25400
C213        C  0.56247817  0.74716819  0.93596735     0.88100
C214        C  0.43160405  0.74613134  0.06651120     0.88000
C215        C  0.43172894  0.74466362  0.93513916     0.88000
C216        C  0.56239843  0.74905058  0.06568546     0.88200
C217        C  0.41905312  0.25673883  0.84428294    -0.11900
C218        C  0.40194196  0.24966461  0.89127383     0.05100
C219        C  0.35160036  0.24671145  0.89941055    -0.07200
C220        C  0.31957818  0.25258646  0.86019799    -0.08000
C221        C  0.33674332  0.26094970  0.81283295    -0.02500
C222        C  0.38758714  0.26264047  0.80488532     0.04300
N223        N  0.40796913  0.27039846  0.75759503     0.66800
H224        H  0.45821820  0.25834346  0.83819245     0.15700
H225        H  0.28078596  0.24904706  0.86643932     0.15400
N226        N  0.33267422  0.23687381  0.94685896     0.74500
O227        O  0.44688219  0.24934089  0.74571101    -0.39000
O228        O  0.39125174  0.30298599  0.73023028    -0.38900
O229        O  0.29622067  0.25993364  0.96225200    -0.39600
O230        O  0.34853131  0.20125350  0.97095501    -0.39700
C231        C  0.14162691  0.31732653  0.75340018    -0.11900
C232        C  0.18684971  0.33414999  0.73686304     0.05100
C233        C  0.19246724  0.38382986  0.72554723    -0.07200
C234        C  0.15224457  0.41446547  0.72862905    -0.08000
C235        C  0.10793828  0.39838239  0.74716695    -0.02500
C236        C  0.10236550  0.34909311  0.76007172     0.04300
N237        N  0.05742636  0.33040493  0.77877227     0.66800
H238        H  0.13768772  0.27945858  0.76334442     0.15700
H239        H  0.15548819  0.45133446  0.71599464     0.15400
N240        N  0.23836479  0.40430951  0.71198556     0.74500
O241        O  0.04474378  0.28738322  0.76920582    -0.39000
O242        O  0.03376523  0.35407066  0.80999617    -0.38900
O243        O  0.26544045  0.38296835  0.68205920    -0.39600
O244        O  0.25025618  0.44599177  0.72693880    -0.39700
C245        C  0.27007217  0.19038196  0.61945329    -0.11900
C246        C  0.25699176  0.18187862  0.66776654     0.05100
C247        C  0.24069583  0.13507473  0.68139793    -0.07200
C248        C  0.23698814  0.09852409  0.64594707    -0.08000
C249        C  0.25012832  0.10773580  0.59769937    -0.02500
C250        C  0.26765479  0.15381086  0.58467341     0.04300
N251        N  0.28357591  0.16398247  0.53631218     0.66800
H252        H  0.28309171  0.22557097  0.60850338     0.15700
H253        H  0.22464691  0.06258836  0.65621319     0.15400
N254        N  0.22892247  0.12367264  0.73077551     0.74500
O255        O  0.25535988  0.15698365  0.50089261    -0.39000
O256        O  0.32353246  0.18534082  0.52955172    -0.38900
O257        O  0.19824854  0.14874622  0.75366107    -0.39600
O258        O  0.24519555  0.08529812  0.74985091    -0.39700
C259        C  0.39858605  0.70741137  0.14059022    -0.11900
C260        C  0.39551813  0.74521912  0.10642744     0.05100
C261        C  0.35829405  0.78032450  0.11151423    -0.07200
C262        C  0.32454825  0.77548631  0.14915006    -0.08000
C263        C  0.32857376  0.73862523  0.18403710    -0.02500
C264        C  0.36666525  0.70457487  0.18012578     0.04300
N265        N  0.37474271  0.66828791  0.21667612     0.66800
H266        H  0.42762534  0.68103816  0.13776543     0.15700
H267        H  0.29533975  0.80155595  0.15183745     0.15400
N268        N  0.35351579  0.82083659  0.07911974     0.74500
O269        O  0.39147322  0.62722709  0.20503350    -0.39000
O270        O  0.37183743  0.67929614  0.26103920    -0.38900
O271        O  0.31215081  0.83124736  0.06233765    -0.39600
O272        O  0.38600462  0.85314116  0.07872418    -0.39700
C273        C  0.21880344  0.84812175  0.33230692    -0.11900
C274        C  0.25836940  0.81593901  0.33333457     0.05100
C275        C  0.29722158  0.82486852  0.36617669    -0.07200
C276        C  0.29420448  0.86511079  0.39734026    -0.08000
C277        C  0.25397992  0.89639275  0.39710135    -0.02500
C278        C  0.21612490  0.88815058  0.36351831     0.04300
N279        N  0.17582829  0.92091967  0.35906997     0.66800
H280        H  0.19014761  0.84267258  0.30589380     0.15700
H281        H  0.32305381  0.87123271  0.42338645     0.15400
N282        N  0.33956332  0.79401513  0.36924768     0.74500
O283        O  0.18319912  0.96601913  0.35529709    -0.39000
O284        O  0.13367104  0.90449982  0.35167696    -0.38900
O285        O  0.33863116  0.75060975  0.35469081    -0.39600
O286        O  0.37829062  0.80989218  0.38801962    -0.39700
C287        C  0.12789042  0.60212972  0.29221712    -0.11900
C288        C  0.10044349  0.60042881  0.24927237     0.05100
C289        C  0.11145684  0.63368492  0.21168785    -0.07200
C290        C  0.14857924  0.66787029  0.21867505    -0.08000
C291        C  0.17802761  0.66735329  0.26041372    -0.02500
C292        C  0.16681215  0.63418087  0.29795793     0.04300
N293        N  0.19498704  0.63109953  0.34158500     0.66800
H294        H  0.12033777  0.57674899  0.32129526     0.15700
H295        H  0.15572379  0.69412622  0.19030157     0.15400
N296        N  0.08615015  0.63337493  0.16619683     0.74500
O297        O  0.23994850  0.62334328  0.33903637    -0.39000
O298        O  0.17391242  0.62546344  0.38185360    -0.38900
O299        O  0.07012958  0.67279956  0.14915614    -0.39600
O300        O  0.09138136  0.59768940  0.13793956    -0.39700
C301        C  0.67226699  0.22076972  0.14537833    -0.11900
C302        C  0.66497526  0.25194170  0.18494291     0.05100
C303        C  0.62225847  0.28066231  0.18709648    -0.07200
C304        C  0.58958558  0.27874022  0.14780613    -0.08000
C305        C  0.59686205  0.24722018  0.10848338    -0.02500
C306        C  0.63835031  0.21731408  0.10779011     0.04300
N307        N  0.64766115  0.18463071  0.06845415     0.66800
H308        H  0.70477010  0.19878699  0.14369678     0.15700
H309        H  0.55737890  0.30118511  0.14825394     0.15400
N310        N  0.61065433  0.31079985  0.22847233     0.74500
O311        O  0.68716287  0.18770177  0.04553618    -0.39000
O312        O  0.62221237  0.14677661  0.06397654    -0.38900
O313        O  0.63262481  0.30590208  0.26836411    -0.39600
O314        O  0.57517122  0.33976891  0.22666354    -0.39700
C315        C  0.84438093  0.32992927  0.21354322    -0.11900
C316        C  0.81620214  0.32611946  0.25576140     0.05100
C317        C  0.82443503  0.35889570  0.29446301    -0.07200
C318        C  0.86110309  0.39389681  0.28976172    -0.08000
C319        C  0.88785161  0.39917841  0.24661990    -0.02500
C320        C  0.87817462  0.36735744  0.20747422     0.04300
N321        N  0.90108091  0.37276035  0.16109918     0.66800
H322        H  0.83862656  0.30452156  0.18409109     0.15700
H323        H  0.86747038  0.41866846  0.31963987     0.15400
N324        N  0.79531676  0.35853533  0.33788454     0.74500
O325        O  0.91891050  0.33596203  0.14044315    -0.39000
O326        O  0.89183292  0.40988183  0.13584248    -0.38900
O327        O  0.81294380  0.37342344  0.37751932    -0.39600
O328        O  0.75088269  0.34748410  0.33623524    -0.39700
C329        C  0.71373900  0.13707403  0.40361251    -0.11900
C330        C  0.75107154  0.10240153  0.40194898     0.05100
C331        C  0.78517108  0.10435759  0.36385672    -0.07200
C332        C  0.78075900  0.14015321  0.32807478    -0.08000
C333        C  0.74404442  0.17538769  0.33025136    -0.02500
C334        C  0.71028160  0.17432458  0.36896636     0.04300
N335        N  0.67322641  0.21091307  0.37449840     0.66800
H336        H  0.68790410  0.13598747  0.43319645     0.15700
H337        H  0.80672955  0.14098266  0.29861404     0.15400
N338        N  0.82356176  0.06956960  0.36002279     0.74500
O339        O  0.63459863  0.20121472  0.39711384    -0.39000
O340        O  0.68035660  0.25402694  0.36066054    -0.38900
O341        O  0.82646697  0.04323955  0.32265319    -0.39600
O342        O  0.85964815  0.07258818  0.38812823    -0.39700
C343        C  0.64479807  0.71111465  0.83149964    -0.11900
C344        C  0.67933046  0.74846161  0.83241683     0.05100
C345        C  0.67589674  0.78525782  0.86819640    -0.07200
C346        C  0.63632349  0.78472378  0.90037277    -0.08000
C347        C  0.60149427  0.74747684  0.89907230    -0.02500
C348        C  0.60616954  0.71002405  0.86433399     0.04300
N349        N  0.57097437  0.67184458  0.86030694     0.66800
H350        H  0.64692708  0.68335575  0.80378748     0.15700
H351        H  0.63362674  0.81263548  0.92794936     0.15400
N352        N  0.71230000  0.82260478  0.87306026     0.74500
O353        O  0.52648482  0.68204594  0.85667031    -0.39000
O354        O  0.58464814  0.62864878  0.85335449    -0.38900
O355        O  0.70190981  0.86256333  0.89298544    -0.39600
O356        O  0.75579702  0.81466340  0.86113675    -0.39700
C357        C  0.82876807  0.64287526  0.71669530    -0.11900
C358        C  0.82836905  0.67655027  0.75478551     0.05100
C359        C  0.86424604  0.67346522  0.79153111    -0.07200
C360        C  0.89818224  0.63536931  0.78991228    -0.08000
C361        C  0.89915651  0.60220467  0.75115525    -0.02500
C362        C  0.86439377  0.60690084  0.71358163     0.04300
N363        N  0.86422213  0.57555390  0.67209241     0.66800
H364        H  0.80141144  0.64493358  0.68857185     0.15700
H365        H  0.92541151  0.63276119  0.81819856     0.15400
N366        N  0.86753522  0.70889604  0.82989465     0.74500
O367        O  0.82612303  0.55232982  0.66162534    -0.39000
O368        O  0.89617096  0.58120329  0.63980494    -0.38900
O369        O  0.85611108  0.75265918  0.82240155    -0.39600
O370        O  0.88600268  0.69748810  0.87028847    -0.39700
C371        C  0.71458675  0.82459917  0.64807224    -0.11900
C372        C  0.75106948  0.82573168  0.68345157     0.05100
C373        C  0.78728328  0.86218943  0.68141248    -0.07200
C374        C  0.78665257  0.89536581  0.64265044    -0.08000
C375        C  0.74969131  0.89457877  0.60747203    -0.02500
C376        C  0.71285341  0.85894623  0.61080106     0.04300
N377        N  0.67418286  0.85588416  0.57611627     0.66800
H378        H  0.68707504  0.79659342  0.64935147     0.15700
H379        H  0.81437594  0.92320821  0.64080202     0.15400
N380        N  0.82436726  0.86650481  0.71818701     0.74500
O381        O  0.66701627  0.81634972  0.55405720    -0.39000
O382        O  0.64045216  0.88684820  0.57737286    -0.38900
O383        O  0.86416249  0.88706893  0.70852088    -0.39600
O384        O  0.81646091  0.85318645  0.76129079    -0.39700
C385        C  0.75046811  0.31379771  0.13661057    -0.11900
C386        C  0.73811598  0.32805030  0.18405023     0.05100
C387        C  0.72907343  0.37786343  0.19334143    -0.07200
C388        C  0.73039801  0.41132598  0.15505728    -0.08000
C389        C  0.74177637  0.39664356  0.10789128    -0.02500
C390        C  0.75247006  0.34756215  0.09856314     0.04300
N391        N  0.76535309  0.33158049  0.05078371     0.66800
H392        H  0.75922677  0.27615631  0.12928097     0.15700
H393        H  0.72320531  0.44933699  0.16236513     0.15400
N394        N  0.72017331  0.39576069  0.24123606     0.74500
O395        O  0.80263829  0.30572660  0.04452997    -0.39000
O396        O  0.73793200  0.34067476  0.01519056    -0.38900
O397        O  0.74665298  0.42938833  0.25766214    -0.39600
O398        O  0.67923396  0.38892733  0.26030009    -0.39700
C399        C  0.73908427  0.58929552  0.85296472    -0.11900
C400        C  0.75182085  0.60079375  0.90079828     0.05100
C401        C  0.76532453  0.64851162  0.91271724    -0.07200
C402        C  0.76580559  0.68419218  0.87666569    -0.08000
C403        C  0.75287346  0.67310757  0.82862331    -0.02500
C404        C  0.73930484  0.62488597  0.81637964     0.04300
N405        N  0.72522663  0.61140570  0.76776086     0.66800
H406        H  0.72848840  0.55240299  0.84428710     0.15700
H407        H  0.77581528  0.72099311  0.88629137     0.15400
N408        N  0.77667246  0.66153306  0.96169791     0.74500
O409        O  0.73024700  0.56809615  0.75356012    -0.39000
O410        O  0.70457708  0.64141973  0.73994824    -0.38900
O411        O  0.81846119  0.67701146  0.97233709    -0.39600
O412        O  0.74376208  0.66150417  0.99349202    -0.39700
C413        C  0.29448496  0.40135193  0.86250084    -0.11900
C414        C  0.25294190  0.40119404  0.89191657     0.05100
C415        C  0.21586453  0.36715264  0.88199383    -0.07200
C416        C  0.22103679  0.33495195  0.84287442    -0.08000
C417        C  0.26157522  0.33655844  0.81195410    -0.02500
C418        C  0.29895749  0.37037417  0.82235844     0.04300
N419        N  0.34119905  0.37482095  0.79239337     0.66800
H420        H  0.32319111  0.42730365  0.86959598     0.15700
H421        H  0.19354437  0.30742150  0.83728607     0.15400
N422        N  0.17376526  0.36320653  0.91223447     0.74500
O423        O  0.38201069  0.38332132  0.81150964    -0.39000
O424        O  0.33653572  0.37967432  0.74718391    -0.38900
O425        O  0.13230987  0.35845066  0.89324274    -0.39600
O426        O  0.17856155  0.35731148  0.95739884    -0.39700
C427        C  0.24330048  0.68208721  0.13783419    -0.11900
C428        C  0.25285942  0.66467968  0.18497127     0.05100
C429        C  0.25593751  0.61378234  0.19232441    -0.07200
C430        C  0.24984294  0.58222609  0.15276546    -0.08000
C431        C  0.24124116  0.59994329  0.10599965    -0.02500
C432        C  0.23778348  0.65029560  0.09844854     0.04300
N433        N  0.22932672  0.66958918  0.05095911     0.66800
H434        H  0.23915299  0.72072660  0.13176312     0.15700
H435        H  0.25342330  0.54343440  0.15820008     0.15400
N436        N  0.26629319  0.59336879  0.23907075     0.74500
O437        O  0.19099633  0.65878227  0.02827704    -0.39000
O438        O  0.25810600  0.70055048  0.03331980    -0.38900
O439        O  0.30000368  0.61068309  0.26473202    -0.39600
O440        O  0.24689452  0.55376354  0.25160754    -0.39700
C441        C  0.40116450  0.13530605  0.70756952    -0.11900
C442        C  0.40186350  0.10632421  0.74954918     0.05100
C443        C  0.36822737  0.11630833  0.78680962    -0.07200
C444        C  0.33458194  0.15393845  0.78095858    -0.11600
C445        C  0.33487827  0.18396205  0.73974691    -0.02500
C446        C  0.36896524  0.17454836  0.70221691     0.04300
N447        N  0.37268111  0.20435870  0.65920544     0.66800
H448        H  0.42726705  0.12825297  0.67909755     0.15700
H449        H  0.30821179  0.16031815  0.80938437     0.15400
N450        N  0.36703018  0.08837435  0.83054819     0.74500
O451        O  0.35806386  0.24774958  0.65890263    -0.39000
O452        O  0.39329932  0.18809059  0.62167533    -0.38900
O453        O  0.39813945  0.09646819  0.86323483    -0.39600
O454        O  0.32929072  0.06464143  0.84100571    -0.39700
C455        C  0.59266671  0.84856287  0.74544571    -0.11900
C456        C  0.60483954  0.89611836  0.75883481     0.05100
C457        C  0.65293429  0.90710618  0.77230075    -0.07200
C458        C  0.68810105  0.87044072  0.77152614    -0.08000
C459        C  0.67633406  0.82289020  0.75756084    -0.02500
C460        C  0.62781102  0.81157462  0.74466036     0.04300
N461        N  0.61350510  0.76324051  0.73076390     0.66800
H462        H  0.55559133  0.84035517  0.73509235     0.15700
H463        H  0.72511283  0.87920379  0.78144858     0.15400
N464        N  0.66694460  0.95555930  0.78516392     0.74500
O465        O  0.57165543  0.74778057  0.74119576    -0.39000
O466        O  0.64120655  0.73681382  0.70565947    -0.38900
O467        O  0.69436674  0.96276436  0.82119869    -0.39600
O468        O  0.65764612  0.99027439  0.75675769    -0.39700
C469        C  0.31921896  0.77337941  0.86198099    -0.11900
C470        C  0.32680467  0.74630051  0.81960808     0.05100
C471        C  0.36865299  0.71627021  0.81584163    -0.07200
C472        C  0.40172998  0.71547692  0.85498433    -0.08000
C473        C  0.39465673  0.74414304  0.89642773    -0.02500
C474        C  0.35276481  0.77294508  0.89988550     0.04300
N475        N  0.34206073  0.79930981  0.94317264     0.66800
H476        H  0.28685339  0.79527121  0.86572558     0.15700
H477        H  0.43374364  0.69291284  0.85297552     0.15400
N478        N  0.37812190  0.68609716  0.77385862     0.74500
O479        O  0.35704430  0.84235345  0.94795415    -0.39000
O480        O  0.31026138  0.78313449  0.97180980    -0.38900
O481        O  0.35040059  0.68633896  0.73736069    -0.39600
O482        O  0.41409581  0.65768464  0.77355654    -0.39700
C483        C  0.18640196  0.63178975  0.74019196    -0.11900
C484        C  0.17254010  0.67993889  0.74878961     0.05100
C485        C  0.12269290  0.69070860  0.75679256    -0.07200
C486        C  0.08880184  0.65230305  0.75658916    -0.08000
C487        C  0.10349624  0.60412825  0.74939726    -0.02500
C488        C  0.15276752  0.59401313  0.74143650     0.04300
N489        N  0.16979125  0.54530904  0.73732065     0.66800
H490        H  0.22416733  0.62332040  0.73332173     0.15700
H491        H  0.05069952  0.65982413  0.76272670     0.15400
N492        N  0.10559723  0.73951097  0.76504475     0.74500
O493        O  0.19681405  0.53389039  0.70217797    -0.39000
O494        O  0.16813246  0.51813604  0.77416609    -0.38900
O495        O  0.06201836  0.75046247  0.75594551    -0.39600
O496        O  0.13286312  0.77138644  0.78344724    -0.39700
C497        C  0.26273335  0.81545344  0.62535221    -0.11900
C498        C  0.25161285  0.82701849  0.67365518     0.05100
C499        C  0.23961200  0.87567299  0.68593000    -0.07200
C500        C  0.24020313  0.91132043  0.64934143    -0.08000
C501        C  0.25189835  0.89946696  0.60136744    -0.02500
C502        C  0.26320791  0.85119109  0.58925206     0.04300
N503        N  0.27415676  0.83785525  0.54023916     0.66800
H504        H  0.27091527  0.77821309  0.61564663     0.15700
H505        H  0.23093923  0.94855051  0.65810177     0.15400
N506        N  0.22592543  0.88950119  0.73450984     0.74500
O507        O  0.31255240  0.81478108  0.53075343    -0.39000
O508        O  0.24381634  0.84600801  0.50686952    -0.38900
O509        O  0.23196391  0.93269614  0.74869874    -0.39600
O510        O  0.20473744  0.85993080  0.76234485    -0.39700
C511        C  0.27737092  0.63769816  0.81960315    -0.11900
C512        C  0.24735354  0.67862240  0.82357429     0.05100
C513        C  0.21578288  0.68268830  0.86385468    -0.07200
C514        C  0.21507193  0.64536181  0.89867785    -0.08000
C515        C  0.24635324  0.60534763  0.89516988    -0.02500
C516        C  0.27767856  0.60149765  0.85506554     0.04300
N517        N  0.30792715  0.55973456  0.84834456     0.66800
H518        H  0.29948938  0.63273556  0.78773632     0.15700
H519        H  0.19110039  0.64831154  0.92963312     0.15400
N520        N  0.18481706  0.72421883  0.87037509     0.74500
O521        O  0.28907110  0.51802667  0.84612000    -0.39000
O522        O  0.35220243  0.56499475  0.83789166    -0.38900
O523        O  0.14488836  0.71984269  0.89236302    -0.39600
O524        O  0.19942884  0.76618344  0.85923763    -0.39700
C525        C  0.32534152  0.85864918  0.78201345    -0.11900
C526        C  0.32830922  0.82244418  0.74639987     0.05100
C527        C  0.36695050  0.82373573  0.71282597    -0.07200
C528        C  0.40122306  0.86116520  0.71538286    -0.08000
C529        C  0.39884964  0.89667081  0.75178731    -0.02500
C530        C  0.36055845  0.89498924  0.78576061     0.04300
N531        N  0.35593509  0.93046996  0.82343225     0.66800
H532        H  0.29540076  0.85858675  0.80739720     0.15700
H533        H  0.43077332  0.86162209  0.68946441     0.15400
N534        N  0.37341709  0.78664308  0.67715561     0.74500
O535        O  0.38292647  0.92769373  0.86037724    -0.39000
O536        O  0.31819933  0.95634997  0.82531807    -0.38900
O537        O  0.36640270  0.79713717  0.63315674    -0.39600
O538        O  0.40160560  0.75192808  0.68693862    -0.39700
C539        C  0.14902884  0.74378983  0.41818385    -0.11900
C540        C  0.10224120  0.75247815  0.40056330     0.05100
C541        C  0.09494954  0.75911815  0.35045121    -0.07200
C542        C  0.13443168  0.75456777  0.31864302    -0.08000
C543        C  0.18124745  0.74322514  0.33577860    -0.02500
C544        C  0.18881206  0.73959470  0.38671493     0.04300
N545        N  0.23598642  0.73141067  0.40743835     0.66800
H546        H  0.15449674  0.73949938  0.45692583     0.15700
H547        H  0.12851309  0.75947773  0.28006549     0.15400
N548        N  0.04775638  0.76985407  0.33133559     0.74500
O549        O  0.24698850  0.75029975  0.44773592    -0.39000
O550        O  0.26445779  0.70082413  0.38898127    -0.38900
O551        O  0.04241989  0.80368286  0.30087698    -0.39600
O552        O  0.01206014  0.74312665  0.34177200    -0.39700
C553        C  0.84710580  0.73744574  0.59448925    -0.11900
C554        C  0.89444017  0.75294564  0.60484622     0.05100
C555        C  0.90642772  0.76728938  0.65249631    -0.07200
C556        C  0.87102964  0.76530730  0.68886769    -0.08000
C557        C  0.82360718  0.74992889  0.67872782    -0.02500
C558        C  0.81113440  0.73608389  0.63067868     0.04300
N559        N  0.76270976  0.72082723  0.61778741     0.66800
H560        H  0.83820070  0.72635774  0.55785497     0.15700
H561        H  0.88057212  0.77582077  0.72554909     0.15400
N562        N  0.95449457  0.78299407  0.66482970     0.74500
O563        O  0.74749582  0.72630267  0.57488269    -0.39000
O564        O  0.73565720  0.69983053  0.64817180    -0.38900
O565        O  0.96039728  0.81857010  0.69311968    -0.39600
O566        O  0.99065870  0.75748030  0.65313086    -0.39700
C567        C  0.13322580  0.71551454  0.60409092    -0.11900
C568        C  0.10120608  0.75519923  0.60171240     0.05100
C569        C  0.10804433  0.79448960  0.63422346    -0.07200
C570        C  0.14453096  0.79189896  0.66937922    -0.08000
C571        C  0.17663874  0.75256408  0.67153087    -0.02500
C572        C  0.17189402  0.71433737  0.63746216     0.04300
N573        N  0.20622826  0.67489101  0.63543157     0.66800
H574        H  0.12922383  0.68600946  0.57838960     0.15700
H575        H  0.14814872  0.82135964  0.69511111     0.15400
N576        N  0.07846749  0.83726935  0.63266527     0.74500
O577        O  0.19372741  0.63427890  0.61816869    -0.39000
O578        O  0.25016384  0.68150656  0.64672066    -0.38900
O579        O  0.05817900  0.85175066  0.67105756    -0.39600
O580        O  0.08393775  0.86695479  0.59820248    -0.39700
C581        C  0.64879333  0.76302530  0.08280307    -0.11900
C582        C  0.60277901  0.75120573  0.10036206     0.05100
C583        C  0.59570497  0.74493791  0.15038719    -0.07200
C584        C  0.63459334  0.75232103  0.18239633    -0.08000
C585        C  0.68124428  0.76399976  0.16509689    -0.02500
C586        C  0.68853891  0.76864542  0.11419988     0.04300
N587        N  0.73536891  0.77883997  0.09345402     0.66800
H588        H  0.65366829  0.76805053  0.04409030     0.15700
H589        H  0.62890835  0.74692307  0.22092935     0.15400
N590        N  0.54948753  0.73036168  0.16891533     0.74500
O591        O  0.74484830  0.76580612  0.05056590    -0.39000
O592        O  0.76558348  0.80506862  0.11558160    -0.38900
O593        O  0.53424215  0.68778248  0.16143942    -0.39600
O594        O  0.52573355  0.75852974  0.19605595    -0.39700
C595        C  0.87532083  0.69183611  0.23222154    -0.11900
C596        C  0.82632821  0.68381556  0.24347233     0.05100
C597        C  0.81129977  0.63658065  0.25763157    -0.07200
C598        C  0.84599286  0.59899937  0.25968179    -0.08000
C599        C  0.89470536  0.60766106  0.24788228    -0.02500
C600        C  0.90930920  0.65440707  0.23382888     0.04300
N601        N  0.95864070  0.66443137  0.22097961     0.66800
H602        H  0.88746264  0.72735917  0.22124448     0.15700
H603        H  0.83497569  0.56271469  0.27018636     0.15400
N604        N  0.76156536  0.62596800  0.26970362     0.74500
O605        O  0.96811490  0.68473369  0.18104471    -0.39000
O606        O  0.99204274  0.65845439  0.25178600    -0.38900
O607        O  0.74464258  0.58392002  0.26269122    -0.39600
O608        O  0.73506991  0.65741294  0.28987107    -0.39700
C609        C  0.74413266  0.81966598  0.36076104    -0.11900
C610        C  0.75889705  0.83703435  0.31509325     0.05100
C611        C  0.76962081  0.88707295  0.30996436    -0.07200
C612        C  0.76784468  0.91745338  0.35068000    -0.08000
C613        C  0.75444095  0.89960928  0.39619541    -0.02500
C614        C  0.74166929  0.85035906  0.40131937     0.04300
N615        N  0.72662496  0.83090071  0.44720219     0.66800
H616        H  0.73418457  0.78181113  0.36473522     0.15700
H617        H  0.77670934  0.95560825  0.34669860     0.15400
N618        N  0.78140348  0.90822431  0.26405860     0.74500
O619        O  0.69282618  0.79999154  0.44899502    -0.39000
O620        O  0.75000694  0.84085903  0.48535650    -0.38900
O621        O  0.76121796  0.94740388  0.25140211    -0.39600
O622        O  0.81871406  0.89437338  0.24165735    -0.39700
C623        C  0.71295697  0.65694556  0.16570133    -0.11900
C624        C  0.75427017  0.68703606  0.16563790     0.05100
C625        C  0.79282511  0.67630474  0.13315010    -0.07200
C626        C  0.78863227  0.63568715  0.10270728    -0.08000
C627        C  0.74728787  0.60587241  0.10262141    -0.02500
C628        C  0.70875021  0.61691728  0.13444858     0.04300
N629        N  0.66606367  0.58715512  0.13705135     0.66800
H630        H  0.68419507  0.66378616  0.19154601     0.15700
H631        H  0.81776249  0.62795187  0.07751901     0.15400
N632        N  0.83638022  0.70539403  0.13005598     0.74500
O633        O  0.66990264  0.54178245  0.14239862    -0.39000
O634        O  0.62480691  0.60670680  0.14091668    -0.38900
O635        O  0.87460374  0.68769132  0.11204067    -0.39600
O636        O  0.83699049  0.74909763  0.14364349    -0.39700
C637        C  0.82283544  0.72895053  0.35256772    -0.11900
C638        C  0.83143024  0.76088210  0.31374156     0.05100
C639        C  0.87435254  0.78943543  0.31347855    -0.07200
C640        C  0.90536016  0.78732592  0.35405369    -0.08000
C641        C  0.89648609  0.75553523  0.39281476    -0.02500
C642        C  0.85518591  0.72563542  0.39157771     0.04300
N643        N  0.84428932  0.69364190  0.43086922     0.66800
H644        H  0.79033764  0.70683486  0.35283599     0.15700
H645        H  0.93782567  0.80950491  0.35486706     0.15400
N646        N  0.88810443  0.81917914  0.27248292     0.74500
O647        O  0.81628300  0.70760665  0.46423966    -0.39000
O648        O  0.85592490  0.64941608  0.42810264    -0.38900
O649        O  0.86921905  0.81287845  0.23121941    -0.39600
O650        O  0.92309563  0.84860360  0.27607403    -0.39700
C651        C  0.34925681  0.89916711  0.23536992    -0.11900
C652        C  0.39771264  0.89040381  0.24790683     0.05100
C653        C  0.41186993  0.84354430  0.26294417    -0.07200
C654        C  0.37696119  0.80666215  0.26515775    -0.08000
C655        C  0.32799689  0.81565813  0.25438686    -0.02500
C656        C  0.31376568  0.86262884  0.23871289     0.04300
N657        N  0.26414585  0.87411112  0.22618614     0.66800
H658        H  0.33897357  0.93501131  0.22348481     0.15700
H659        H  0.38805734  0.77058816  0.27595186     0.15400
N660        N  0.46127991  0.83269078  0.27588183     0.74500
O661        O  0.24951214  0.91753605  0.22770019    -0.39000
O662        O  0.23530421  0.84178766  0.21118042    -0.38900
O663        O  0.47034148  0.80129874  0.30804495    -0.39600
O664        O  0.49594095  0.85048414  0.25187612    -0.39700
C665        C  0.64043518  0.09359429  0.24093781    -0.11900
C666        C  0.59360335  0.10564453  0.25673266     0.05100
C667        C  0.58403052  0.15287715  0.27375215    -0.07200
C668        C  0.62118471  0.18737311  0.27329491    -0.08000
C669        C  0.66792830  0.17595845  0.25687217    -0.02500
C670        C  0.67802539  0.12809913  0.24106548     0.04300
N671        N  0.72576055  0.11369228  0.22558404     0.66800
H672        H  0.64766454  0.05704267  0.22824334     0.15700
H673        H  0.61362504  0.22308136  0.28732199     0.15400
N674        N  0.53679502  0.16692125  0.29053813     0.74500
O675        O  0.74073401  0.07116301  0.23393449    -0.39000
O676        O  0.75227984  0.14226009  0.20155416    -0.38900
O677        O  0.51621072  0.14303815  0.32372968    -0.39600
O678        O  0.51950319  0.20758869  0.27832882    -0.39700
C679        C  0.63365679  0.90500114  0.20819793    -0.11900
C680        C  0.60471010  0.90569524  0.25010866     0.05100
C681        C  0.61580753  0.87315025  0.28817656    -0.07200
C682        C  0.65286425  0.83883190  0.28194856    -0.08000
C683        C  0.68291448  0.83925969  0.24073937    -0.02500
C684        C  0.67336260  0.87355839  0.20371432     0.04300
N685        N  0.70424421  0.87836864  0.16218836     0.66800
H686        H  0.62657738  0.93065269  0.17922159     0.15700
H687        H  0.65901128  0.81224873  0.31022740     0.15400
N688        N  0.59073812  0.87481984  0.33360471     0.74500
O689        O  0.68608144  0.88757040  0.12110289    -0.39000
O690        O  0.74940695  0.88284290  0.16796823    -0.38900
O691        O  0.57067756  0.83694558  0.34977301    -0.39600
O692        O  0.59855987  0.90983948  0.36214256    -0.39700
C693        C  0.65579330  0.23887063  0.91988601    -0.11900
C694        C  0.60914869  0.25029172  0.90319781     0.05100
C695        C  0.60169577  0.25830723  0.85327268    -0.07200
C696        C  0.64048446  0.25294461  0.82097773    -0.08000
C697        C  0.68717318  0.24048802  0.83711425    -0.02500
C698        C  0.69510468  0.23433275  0.88767152     0.04300
N699        N  0.74217421  0.22335785  0.90712285     0.66800
H700        H  0.66147282  0.23277082  0.95831953     0.15700
H701        H  0.63454307  0.26024261  0.78279356     0.15400
N702        N  0.55520497  0.27215810  0.83462851     0.74500
O703        O  0.75479226  0.24031461  0.94781180    -0.39000
O704        O  0.76850667  0.19174646  0.88723245    -0.38900
O705        O  0.53306593  0.30778926  0.85301545    -0.39600
O706        O  0.54068900  0.25497125  0.79468487    -0.39700
C707        C  0.81898385  0.36436022  0.75338142    -0.11900
C708        C  0.83459114  0.31584967  0.75727376     0.05100
C709        C  0.88523712  0.30581147  0.75760622    -0.07200
C710        C  0.91808372  0.34483241  0.75506697    -0.08000
C711        C  0.90206788  0.39301685  0.75292826    -0.02500
C712        C  0.85203138  0.40294359  0.75159341     0.04300
N713        N  0.83419306  0.45177925  0.74801775     0.66800
H714        H  0.78051207  0.37229828  0.75179405     0.15700
H715        H  0.95665384  0.33766540  0.75520533     0.15400
N716        N  0.90427015  0.25703624  0.76033053     0.74500
O717        O  0.79945081  0.46147030  0.71971824    -0.39000
O718        O  0.84964493  0.48421262  0.77648995    -0.38900
O719        O  0.88093803  0.22344599  0.78091132    -0.39600
O720        O  0.94565384  0.24755380  0.74315251    -0.39700
C721        C  0.76851074  0.12263472  0.69138459    -0.11900
C722        C  0.75192297  0.16993011  0.68190961     0.05100
C723        C  0.73487512  0.18146020  0.63471013    -0.07200
C724        C  0.73372653  0.14509934  0.59894698    -0.08000
C725        C  0.75066940  0.09821206  0.60879186    -0.02500
C726        C  0.76889715  0.08720115  0.65511568     0.04300
N727        N  0.78848908  0.04028780  0.66557523     0.66800
H728        H  0.78333923  0.11370913  0.72657215     0.15700
H729        H  0.72036384  0.15368069  0.56293268     0.15400
N730        N  0.71992878  0.22971337  0.62191388     0.74500
O731        O  0.83286213  0.03199187  0.65793169    -0.39000
O732        O  0.76328625  0.00952030  0.68825783    -0.38900
O733        O  0.73151184  0.24720200  0.58118931    -0.39600
O734        O  0.69096449  0.25294790  0.64861205    -0.39700
C735        C  0.72039306  0.34621118  0.83474244    -0.11900
C736        C  0.76130193  0.31568881  0.83479750     0.05100
C737        C  0.79964833  0.32560675  0.86763296    -0.07200
C738        C  0.79507738  0.36444499  0.90019097    -0.08000
C739        C  0.75330710  0.39368946  0.90139225    -0.02500
C740        C  0.71577549  0.38477567  0.86757479     0.04300
N741        N  0.67377847  0.41542888  0.86453388     0.66800
H742        H  0.69210023  0.34057194  0.80798609     0.15700
H743        H  0.82410084  0.37090048  0.92597437     0.15400
N744        N  0.84330269  0.29708609  0.86884669     0.74500
O745        O  0.67878185  0.46077769  0.85998706    -0.39000
O746        O  0.63229023  0.39681925  0.85872278    -0.38900
O747        O  0.84141182  0.25151865  0.86532662    -0.39600
O748        O  0.88342308  0.31689460  0.87888317    -0.39700
C749        C  0.64581459  0.17301733  0.72891139    -0.11900
C750        C  0.68444145  0.16700417  0.76160245     0.05100
C751        C  0.68351798  0.12771425  0.79469800    -0.07200
C752        C  0.64340799  0.09630487  0.79461812    -0.08000
C753        C  0.60576799  0.10163292  0.76073533    -0.02500
C754        C  0.60673430  0.14073954  0.72787851     0.04300
N755        N  0.56729726  0.14955642  0.69499202     0.66800
H756        H  0.64507354  0.20409576  0.70515175     0.15700
H757        H  0.64269182  0.06593233  0.81960783     0.15400
N758        N  0.72318708  0.11811249  0.82730193     0.74500
O759        O  0.52435147  0.15171841  0.71072897    -0.39000
O760        O  0.57578007  0.16090108  0.65143908    -0.38900
O761        O  0.71563909  0.09653476  0.86702024    -0.39600
O762        O  0.76639664  0.12557305  0.81416657    -0.39700
C763        C  0.35784467  0.20679943  0.09631221    -0.11900
C764        C  0.39098409  0.24546967  0.09767331     0.05100
C765        C  0.38430549  0.28263214  0.13233262    -0.07200
C766        C  0.34474360  0.28059159  0.16410422    -0.08000
C767        C  0.31071597  0.24268270  0.16194621    -0.02500
C768        C  0.31765690  0.20520722  0.12747456     0.04300
N769        N  0.28428557  0.16555021  0.12299843     0.66800
H770        H  0.36233828  0.17815488  0.06974309     0.15700
H771        H  0.34177577  0.30792544  0.19211962     0.15400
N772        N  0.41872773  0.32122254  0.13769059     0.74500
O773        O  0.24069694  0.17389321  0.11197958    -0.39000
O774        O  0.30028619  0.12280615  0.11883142    -0.38900
O775        O  0.40446121  0.36477528  0.13797984    -0.39600
O776        O  0.46200600  0.31164772  0.14925700    -0.39700
C777        C  0.13100252  0.39285426  0.27669778    -0.11900
C778        C  0.09319100  0.39396405  0.24249803     0.05100
C779        C  0.09046970  0.35705946  0.20727399    -0.07200
C780        C  0.12511634  0.32018029  0.20662631    -0.08000
C781        C  0.16371545  0.31936381  0.23980264    -0.02500
C782        C  0.16693262  0.35644668  0.27544929     0.04300
N783        N  0.20596405  0.35801200  0.31032239     0.66800
H784        H  0.13333897  0.42142167  0.30363720     0.15700
H785        H  0.12100380  0.29146865  0.18037105     0.15400
N786        N  0.05104298  0.35483470  0.17360989     0.74500
O787        O  0.24756432  0.34196653  0.29990557    -0.39000
O788        O  0.19977498  0.37835537  0.35091173    -0.38900
O789        O  0.05580750  0.37307234  0.13187715    -0.39600
O790        O  0.01584421  0.32679376  0.18205230    -0.39700
C791        C  0.27637622  0.17279409  0.34641004    -0.11900
C792        C  0.23819916  0.16901339  0.31296840     0.05100
C793        C  0.20415841  0.13104613  0.31824171    -0.07200
C794        C  0.20835014  0.09909787  0.35773756    -0.08000
C795        C  0.24760993  0.10174033  0.39035982    -0.02500
C796        C  0.28286430  0.13865504  0.38356578     0.04300
N797        N  0.32531109  0.14268339  0.41353117     0.66800
H798        H  0.30242543  0.20191954  0.34265619     0.15700
H799        H  0.18172880  0.07042163  0.36173407     0.15400
N800        N  0.16642868  0.12317478  0.28310656     0.74500
O801        O  0.35632217  0.10897652  0.41309176    -0.39000
O802        O  0.33828256  0.18408727  0.42836608    -0.38900
O803        O  0.17608635  0.12454938  0.23838030    -0.39600
O804        O  0.12548592  0.10754689  0.29645305    -0.39700
C805        C  0.21555373  0.35398740  0.08564039    -0.11900
C806        C  0.24275417  0.39542823  0.09735491     0.05100
C807        C  0.26519109  0.39869578  0.14328484    -0.07200
C808        C  0.26023197  0.36013181  0.17593572    -0.08000
C809        C  0.23524769  0.31754149  0.16335514    -0.02500
C810        C  0.21132855  0.31453395  0.11777921     0.04300
N811        N  0.18190052  0.27327000  0.10367714     0.66800
H812        H  0.19747608  0.35256969  0.05080115     0.15700
H813        H  0.27721916  0.36288458  0.21128954     0.15400
N814        N  0.29115637  0.44132869  0.15842377     0.74500
O815        O  0.16122347  0.27254945  0.06274297    -0.39000
O816        O  0.17353899  0.23881569  0.13262494    -0.38900
O817        O  0.28472692  0.45797369  0.20061434    -0.39600
O818        O  0.32674596  0.45647418  0.13397294    -0.39700
C819        C  0.39650277  0.14804165  0.25848856    -0.11900
C820        C  0.38581959  0.09927899  0.24863891     0.05100
C821        C  0.33849733  0.08625594  0.23496979    -0.07200
C822        C  0.30267292  0.12179970  0.23102529    -0.08000
C823        C  0.31302724  0.17076849  0.24013619    -0.02500
C824        C  0.36061337  0.18431496  0.25480486     0.04300
N825        N  0.37308782  0.23381267  0.26678370     0.66800
H826        H  0.43300781  0.15774742  0.26921351     0.15700
H827        H  0.26647338  0.11111434  0.22014831     0.15400
N828        N  0.32613030  0.03689219  0.22527668     0.74500
O829        O  0.41659966  0.24790543  0.26397287    -0.39000
O830        O  0.34171363  0.26284839  0.28322230    -0.38900
O831        O  0.29713677  0.01508864  0.25320375    -0.39600
O832        O  0.33571393  0.01897352  0.18425654    -0.39700
C833        C  0.90518655  0.23506153  0.34988760    -0.11900
C834        C  0.89393197  0.24308015  0.39882863     0.05100
C835        C  0.84562974  0.25210527  0.41244574    -0.07200
C836        C  0.80949119  0.25365139  0.37687294    -0.08000
C837        C  0.82043643  0.24693742  0.32754307    -0.02500
C838        C  0.86892707  0.23647030  0.31380636     0.04300
N839        N  0.88192204  0.22660623  0.26412332     0.66800
H840        H  0.94245001  0.22753738  0.33987674     0.15700
H841        H  0.77256662  0.26132153  0.38775787     0.15400
N842        N  0.83266993  0.25948826  0.46225949     0.74500
O843        O  0.92453854  0.23484855  0.24948525    -0.39000
O844        O  0.85238931  0.20601750  0.23572015    -0.38900
O845        O  0.85047053  0.29461967  0.48570480    -0.39600
O846        O  0.79909714  0.23461353  0.48101165    -0.39700
C847        C  0.14469678  0.28645905  0.59064196    -0.11900
C848        C  0.10718381  0.25289676  0.59813364     0.05100
C849        C  0.10876190  0.22261185  0.63933571    -0.07200
C850        C  0.14815859  0.22596899  0.67143965    -0.08000
C851        C  0.18637316  0.25877700  0.66353492    -0.02500
C852        C  0.18478734  0.28925838  0.62210647     0.04300
N853        N  0.22346265  0.32236660  0.61056289     0.66800
H854        H  0.14351215  0.30970144  0.55902071     0.15700
H855        H  0.14804187  0.20397536  0.70386134     0.15400
N856        N  0.06930789  0.19065104  0.65078013     0.74500
O857        O  0.26710273  0.31078800  0.61816894    -0.39000
O858        O  0.21455652  0.36091498  0.58736514    -0.38900
O859        O  0.07770192  0.14883160  0.66758421    -0.39600
O860        O  0.02633157  0.20650055  0.65051484    -0.39700
C861        C  0.86891815  0.28298560  0.61089979    -0.11900
C862        C  0.89831666  0.24187641  0.60387652     0.05100
C863        C  0.89102397  0.20095942  0.63396803    -0.07200
C864        C  0.85722122  0.20321473  0.67161981    -0.08000
C865        C  0.82740705  0.24400152  0.67847906    -0.02500
C866        C  0.83256442  0.28427354  0.64668614     0.04300
N867        N  0.80160084  0.32641267  0.64956119     0.66800
H868        H  0.87335021  0.31404736  0.58721716     0.15700
H869        H  0.85419489  0.17247717  0.69592521     0.15400
N870        N  0.91725362  0.15665325  0.62702041     0.74500
O871        O  0.81584082  0.36673780  0.63302609    -0.39000
O872        O  0.75896940  0.32328279  0.66585442    -0.38900
O873        O  0.94430976  0.14095169  0.66051420    -0.39600
O874        O  0.90414836  0.12800944  0.59371554    -0.39700
C875        C  0.17838173  0.25552443  0.35856519    -0.11900
C876        C  0.16207958  0.24238071  0.31207053     0.05100
C877        C  0.11194639  0.23268291  0.30438157    -0.07200
C878        C  0.08024467  0.23560994  0.34423232    -0.08000
C879        C  0.09683538  0.24920410  0.39031180    -0.02500
C880        C  0.14620140  0.25990886  0.39748200     0.04300
N881        N  0.16408287  0.27536378  0.44386992     0.66800
H882        H  0.21642588  0.26382393  0.36423768     0.15700
H883        H  0.04213711  0.22702503  0.33953368     0.15400
N884        N  0.09234964  0.21975294  0.25740407     0.74500
O885        O  0.20332169  0.25827967  0.46028434    -0.39000
O886        O  0.14465881  0.31103516  0.46501055    -0.38900
O887        O  0.11923373  0.20451188  0.22369907    -0.39600
O888        O  0.04721874  0.22225359  0.24972996    -0.39700
loop_ 
_geom_bond_atom_site_label_1 
_geom_bond_atom_site_label_2 
_geom_bond_distance 
_geom_bond_site_symmetry_2 
_ccdc_geom_bond_type 
O1           Ni9   1.918   1_455  S
O1           C11   1.280       .  A
O2           Ni9   1.922       .  S
O2           C12   1.284       .  A
O3           Ni9   1.913   1_455  S
O3           C13   1.280       .  A
O4           Ni9   1.909       .  S
O4           C14   1.278       .  A
O5          Ni10   1.926   1_655  S
O5           C14   1.282       .  A
O6          Ni10   1.928       .  S
O6           C13   1.284       .  A
O7          Ni10   1.914   1_655  S
O7           C12   1.279       .  A
O8          Ni10   1.913       .  S
O8           C11   1.279       .  A
Ni9         Ni10   2.390   1_655  S
C11         C879   1.467       .  S
C12         C862   1.488       .  S
C13         C848   1.480       .  S
C14         C834   1.469       .  S
C15         C823   1.490       .  S
C15          C16   1.418       .  A
C15          C20   1.418       .  A
C16         C792   1.497       .  S
C16          C17   1.416       .  A
C17         C876   1.488       .  S
C17          C18   1.415       .  A
C18         C781   1.495       .  S
C18          C19   1.417       .  A
C19         C809   1.486       .  S
C19          C20   1.421       .  A
C20         C767   1.499       .  S
C21         C865   1.500       .  S
C21          C22   1.419       .  A
C21          C26   1.424       .  A
C22         C722   1.497       .  S
C22          C23   1.416       .  A
C23         C750   1.491       .  S
C23          C24   1.419       .  A
C24         C697   1.503       .  S
C24          C25   1.422       .  A
C25         C736   1.498       .  S
C25          C26   1.427       .  A
C26         C708   1.498       .  S
O27         Ni35   1.929   1_545  S
O27          C37   1.283       .  A
O28         Ni35   1.924       .  S
O28          C38   1.282       .  A
O29         Ni35   1.910   1_545  S
O29          C39   1.278       .  A
O30         Ni35   1.915       .  S
O30          C40   1.280       .  A
O31         Ni36   1.924   1_565  S
O31          C40   1.282       .  A
O32         Ni36   1.920       .  S
O32          C39   1.281       .  A
O33         Ni36   1.908   1_565  S
O33          C38   1.281       .  A
O34         Ni36   1.911       .  S
O34          C37   1.278       .  A
Ni35        Ni36   2.390   1_565  S
C37         C820   1.471       .  S
C38         C680   1.487       .  S
C39         C666   1.467       .  S
C40         C652   1.471       .  S
C41         C683   1.501       .  S
C41          C42   1.423       .  A
C41          C46   1.427       .  A
C42         C610   1.499       .  S
C42          C43   1.419       .  A
C43         C638   1.492       .  S
C43          C44   1.415       .  A
C44         C596   1.497       .  S
C44          C45   1.418       .  A
C45         C624   1.499       .  S
C45          C46   1.425       .  A
C46         C585   1.497       .  S
O47         Ni55   1.925   1_455  S
O47          C57   1.282       .  A
O48         Ni55   1.928       .  S
O48          C58   1.283       .  A
O49         Ni55   1.908   1_455  S
O49          C59   1.278       .  A
O50         Ni55   1.911       .  S
O50          C60   1.280       .  A
O51         Ni56   1.926       .  S
O51          C60   1.283       .  A
O52         Ni56   1.926   1_455  S
O52          C59   1.284       .  A
O53         Ni56   1.917       .  S
O53          C58   1.280       .  A
O54         Ni56   1.915   1_455  S
O54          C57   1.280       .  A
Ni55        Ni56   2.389       .  S
C57         C540   1.471       .  S
C58         C554   1.475       .  S
C59         C568   1.486       .  S
C60         C641   1.476       .  S
C61         C484   1.493       .  S
C61          C62   1.417       .  A
C61          C66   1.418       .  A
C62         C571   1.492       .  S
C62          C63   1.419       .  A
C63         C498   1.491       .  S
C63          C64   1.416       .  A
C64         C526   1.489       .  S
C64          C65   1.416       .  A
C65         C470   1.489       .  S
C65          C66   1.414       .  A
C66         C512   1.493       .  S
O67         Ni75   1.925       .  S
O67          C77   1.282       .  A
O68         Ni75   1.925   1_545  S
O68          C78   1.282       .  A
O69         Ni75   1.909       .  S
O69          C79   1.278       .  A
O70         Ni75   1.908   1_545  S
O70          C80   1.278       .  A
O71         Ni76   1.917   1_545  S
O71          C80   1.282       .  A
O72         Ni76   1.916       .  S
O72          C79   1.282       .  A
O73         Ni76   1.912   1_545  S
O73          C78   1.281       .  A
O74         Ni76   1.914       .  S
O74          C77   1.279       .  A
Ni75        Ni76   2.389       .  S
C77         C456   1.471       .  S
C78         C442   1.488       .  S
C79         C529   1.476       .  S
C80         C753   1.470       .  S
O81         Ni89   1.911       .  S
O81          C91   1.280       .  A
O82         Ni89   1.914   1_554  S
O82          C92   1.279       .  A
O83         Ni89   1.917   1_554  S
O83          C93   1.280       .  A
O84         Ni89   1.919       .  S
O84          C94   1.282       .  A
O85         Ni90   1.913       .  S
O85          C94   1.279       .  A
O86         Ni90   1.912   1_554  S
O86          C93   1.280       .  A
O87         Ni90   1.927   1_554  S
O87          C92   1.282       .  A
O88         Ni90   1.929       .  S
O88          C91   1.284       .  A
Ni89        Ni90   2.389       .  S
C91         C414   1.487       .  S
C92         C431   1.471       .  S
C93         C806   1.473       .  S
C94         C515   1.473       .  S
O95        Ni103   1.926   1_556  S
O95         C105   1.284       .  A
O96        Ni103   1.929       .  S
O96         C106   1.284       .  A
O97        Ni103   1.913   1_556  S
O97         C107   1.279       .  A
O98        Ni103   1.914       .  S
O98         C108   1.279       .  A
O99        Ni104   1.920       .  S
O99         C108   1.281       .  A
O100       Ni104   1.919   1_556  S
O100        C107   1.281       .  A
O101       Ni104   1.904       .  S
O101        C106   1.280       .  A
O102       Ni104   1.904   1_556  S
O102        C105   1.279       .  A
Ni103      Ni104   2.389       .  S
C105        C739   1.483       .  S
C106        C627   1.484       .  S
C107        C400   1.467       .  S
C108        C389   1.468       .  S
C109        C358   1.491       .  S
C109        C110   1.416       .  A
C109        C114   1.416       .  A
C110        C557   1.491       .  S
C110        C111   1.414       .  A
C111        C372   1.488       .  S
C111        C112   1.415       .  A
C112        C459   1.490       .  S
C112        C113   1.415       .  A
C113        C344   1.491       .  S
C113        C114   1.416       .  A
C114        C403   1.488       .  S
O115       Ni123   1.922       .  S
O115        C125   1.281       .  A
O116       Ni123   1.921   1_545  S
O116        C126   1.281       .  A
O117       Ni123   1.910   1_545  S
O117        C127   1.280       .  A
O118       Ni123   1.910       .  S
O118        C128   1.278       .  A
O119       Ni124   1.921       .  S
O119        C128   1.283       .  A
O120       Ni124   1.922   1_545  S
O120        C127   1.282       .  A
O121       Ni124   1.912   1_545  S
O121        C126   1.279       .  A
O122       Ni124   1.912       .  S
O122        C125   1.279       .  A
Ni123      Ni124   2.390       .  S
C125        C613   1.468       .  S
C126        C725   1.468       .  S
C127        C330   1.479       .  S
C128        C375   1.481       .  S
C129        C669   1.490       .  S
C129        C130   1.412       .  A
C129        C134   1.415       .  A
C130        C333   1.490       .  S
C130        C131   1.416       .  A
C131        C837   1.495       .  S
C131        C132   1.421       .  A
C132        C316   1.490       .  S
C132        C133   1.421       .  A
C133        C386   1.499       .  S
C133        C134   1.417       .  A
C134        C302   1.488       .  S
O135       Ni143   1.921       .  S
O135        C145   1.280       .  A
O136       Ni143   1.922   1_455  S
O136        C146   1.282       .  A
O137       Ni143   1.906   1_455  S
O137        C147   1.281       .  A
O138       Ni143   1.905       .  S
O138        C148   1.280       .  A
O139       Ni144   1.922       .  S
O139        C148   1.281       .  A
O140       Ni144   1.923   1_455  S
O140        C147   1.281       .  A
O141       Ni144   1.914   1_455  S
O141        C146   1.280       .  A
O142       Ni144   1.914       .  S
O142        C145   1.280       .  A
Ni143      Ni144   2.386       .  S
C145        C599   1.468       .  S
C146        C778   1.479       .  S
C147        C288   1.486       .  S
C148        C319   1.485       .  S
C149        C655   1.493       .  S
C149        C150   1.417       .  A
C149        C154   1.415       .  A
C150        C274   1.496       .  S
C150        C151   1.422       .  A
C151        C543   1.503       .  S
C151        C152   1.428       .  A
C152        C291   1.500       .  S
C152        C153   1.429       .  A
C153        C428   1.504       .  S
C153        C154   1.419       .  A
C154        C263   1.496       .  S
O155       Ni163   1.908   1_565  S
O155        C165   1.280       .  A
O156       Ni163   1.908       .  S
O156        C166   1.279       .  A
O157       Ni163   1.922   1_565  S
O157        C167   1.282       .  A
O158       Ni163   1.921       .  S
O158        C168   1.280       .  A
O159       Ni164   1.919       .  S
O159        C168   1.282       .  A
O160       Ni164   1.914   1_565  S
O160        C167   1.279       .  A
O161       Ni164   1.920       .  S
O161        C166   1.281       .  A
O162       Ni164   1.921   1_565  S
O162        C165   1.282       .  A
Ni163      Ni164   2.389       .  S
C165        C277   1.481       .  S
C166        C249   1.465       .  S
C167        C501   1.469       .  S
C168        C795   1.488       .  S
C169        C851   1.500       .  S
C169        C170   1.414       .  A
C169        C174   1.417       .  A
C170        C246   1.491       .  S
C170        C171   1.418       .  A
C171        C445   1.497       .  S
C171        C172   1.426       .  A
C172        C221   1.498       .  S
C172        C173   1.425       .  A
C173        C417   1.506       .  S
C173        C174   1.424       .  A
C174        C232   1.488       .  S
O175       Ni183   1.908       .  S
O175        C185   1.278       .  A
O176       Ni183   1.910   1_655  S
O176        C186   1.278       .  A
O177       Ni183   1.926       .  S
O177        C187   1.282       .  A
O178       Ni183   1.922   1_655  S
O178        C188   1.281       .  A
O179       Ni184   1.917   1_655  S
O179        C188   1.280       .  A
O180       Ni184   1.919       .  S
O180        C187   1.280       .  A
O181       Ni184   1.923   1_655  S
O181        C186   1.283       .  A
O182       Ni184   1.923       .  S
O182        C185   1.282       .  A
Ni183      Ni184   2.390       .  S
C185        C235   1.468       .  S
C186        C361   1.484       .  S
C187        C487   1.473       .  S
C188        C711   1.470       .  S
O189       Ni197   1.925   1_556  S
O189        C199   1.282       .  A
O190       Ni197   1.919       .  S
O190        C200   1.282       .  A
O191       Ni197   1.917       .  S
O191        C201   1.281       .  A
O192       Ni197   1.919   1_556  S
O192        C202   1.281       .  A
O193       Ni198   1.919       .  S
O193        C202   1.280       .  A
O194       Ni198   1.916   1_554  S
O194        C201   1.280       .  A
O195       Ni198   1.919   1_554  S
O195        C200   1.282       .  A
O196       Ni198   1.921       .  S
O196        C199   1.281       .  A
Ni197      Ni198   2.390   1_554  S
C199        C694   1.476       .  S
C200        C764   1.484       .  S
C201        C305   1.477       .  S
C202        C218   1.470       .  S
O203       Ni211   1.915   1_556  S
O203        C213   1.281       .  A
O204       Ni211   1.917       .  S
O204        C214   1.282       .  A
O205       Ni211   1.924   1_556  S
O205        C215   1.282       .  A
O206       Ni211   1.921       .  S
O206        C216   1.281       .  A
O207       Ni212   1.912       .  S
O207        C216   1.279       .  A
O208       Ni212   1.913   1_556  S
O208        C215   1.280       .  A
O209       Ni212   1.918       .  S
O209        C214   1.280       .  A
O210       Ni212   1.920   1_556  S
O210        C213   1.282       .  A
Ni211      Ni212   2.389       .  S
C213        C347   1.481       .  S
C214        C260   1.484       .  S
C215        C473   1.476       .  S
C216        C582   1.467       .  S
C217        C218   1.392       .  A
C217        C222   1.398       .  A
C217        H224   1.093       .  S
C218        C219   1.408       .  A
C219        C220   1.403       .  A
C219        N226   1.434       .  S
C220        C221   1.408       .  A
C220        H225   1.087       .  S
C221        C222   1.419       .  A
C222        N223   1.436       .  S
N223        O227   1.263       .  A
N223        O228   1.259       .  A
N226        O230   1.262       .  A
N226        O229   1.262       .  A
C231        C232   1.406       .  A
C231        C236   1.404       .  A
C231        H238   1.084       .  S
C232        C233   1.412       .  A
C233        C234   1.396       .  A
C233        N240   1.435       .  S
C234        C235   1.396       .  A
C234        H239   1.077       .  S
C235        C236   1.411       .  A
C236        N237   1.437       .  S
N237        O241   1.263       .  A
N237        O242   1.262       .  A
N240        O244   1.262       .  A
N240        O243   1.259       .  A
C245        C246   1.400       .  A
C245        C250   1.392       .  A
C245        H252   1.076       .  S
C246        C247   1.416       .  A
C247        C248   1.406       .  A
C247        N254   1.434       .  S
C248        C249   1.402       .  A
C248        H253   1.084       .  S
C249        C250   1.404       .  A
C250        N251   1.431       .  S
N251        O255   1.262       .  A
N251        O256   1.262       .  A
N254        O258   1.262       .  A
N254        O257   1.261       .  A
C259        C260   1.406       .  A
C259        C264   1.403       .  A
C259        H266   1.084       .  S
C260        C261   1.417       .  A
C261        C262   1.400       .  A
C261        N268   1.435       .  S
C262        C263   1.402       .  A
C262        H267   1.081       .  S
C263        C264   1.412       .  A
C264        N265   1.436       .  S
N265        O269   1.263       .  A
N265        O270   1.262       .  A
N268        O272   1.262       .  A
N268        O271   1.262       .  A
C273        C274   1.405       .  A
C273        C278   1.400       .  A
C273        H280   1.083       .  S
C274        C275   1.422       .  A
C275        C276   1.404       .  A
C275        N282   1.446       .  S
C276        C277   1.404       .  A
C276        H281   1.083       .  S
C277        C278   1.412       .  A
C278        N279   1.436       .  S
N279        O283   1.263       .  A
N279        O284   1.263       .  A
N282        O286   1.263       .  A
N282        O285   1.261       .  A
C287        C288   1.404       .  A
C287        C292   1.397       .  A
C287        H294   1.084       .  S
C288        C289   1.416       .  A
C289        C290   1.403       .  A
C289        N296   1.433       .  S
C290        C291   1.407       .  A
C290        H295   1.083       .  S
C291        C292   1.415       .  A
C292        N293   1.433       .  S
N293        O297   1.259       .  A
N293        O298   1.263       .  A
N296        O300   1.262       .  A
N296        O299   1.262       .  A
C301        C302   1.402       .  A
C301        C306   1.397       .  A
C301        H308   1.082       .  S
C302        C303   1.420       .  A
C303        C304   1.408       .  A
C303        N310   1.446       .  S
C304        C305   1.403       .  A
C304        H309   1.082       .  S
C305        C306   1.409       .  A
C306        N307   1.432       .  S
N307        O311   1.262       .  A
N307        O312   1.262       .  A
N310        O314   1.263       .  A
N310        O313   1.261       .  A
C315        C316   1.404       .  A
C315        C320   1.399       .  A
C315        H322   1.083       .  S
C316        C317   1.415       .  A
C317        C318   1.402       .  A
C317        N324   1.442       .  S
C318        C319   1.407       .  A
C318        H323   1.083       .  S
C319        C320   1.415       .  A
C320        N321   1.434       .  S
N321        O325   1.262       .  A
N321        O326   1.262       .  A
N324        O328   1.262       .  A
N324        O327   1.263       .  A
C329        C330   1.404       .  A
C329        C334   1.404       .  A
C329        H336   1.084       .  S
C330        C331   1.411       .  A
C331        C332   1.399       .  A
C331        N338   1.431       .  S
C332        C333   1.403       .  A
C332        H337   1.083       .  S
C333        C334   1.417       .  A
C334        N335   1.443       .  S
N335        O339   1.263       .  A
N335        O340   1.262       .  A
N338        O342   1.262       .  A
N338        O341   1.262       .  A
C343        C344   1.401       .  A
C343        C348   1.398       .  A
C343        H350   1.082       .  S
C344        C345   1.417       .  A
C345        C346   1.407       .  A
C345        N352   1.442       .  S
C346        C347   1.405       .  A
C346        H351   1.083       .  S
C347        C348   1.413       .  A
C348        N349   1.434       .  S
N349        O353   1.262       .  A
N349        O354   1.262       .  A
N352        O356   1.262       .  A
N352        O355   1.263       .  A
C357        C358   1.401       .  A
C357        C362   1.398       .  A
C357        H364   1.082       .  S
C358        C359   1.416       .  A
C359        C360   1.406       .  A
C359        N366   1.441       .  S
C360        C361   1.405       .  A
C360        H365   1.083       .  S
C361        C362   1.415       .  A
C362        N363   1.433       .  S
N363        O367   1.262       .  A
N363        O368   1.262       .  A
N366        O370   1.263       .  A
N366        O369   1.262       .  A
C371        C372   1.400       .  A
C371        C376   1.397       .  A
C371        H378   1.082       .  S
C372        C373   1.416       .  A
C373        C374   1.406       .  A
C373        N380   1.443       .  S
C374        C375   1.405       .  A
C374        H379   1.083       .  S
C375        C376   1.415       .  A
C376        N377   1.433       .  S
N377        O381   1.262       .  A
N377        O382   1.262       .  A
N380        O384   1.262       .  A
N380        O383   1.263       .  A
C385        C386   1.407       .  A
C385        C390   1.402       .  A
C385        H392   1.083       .  S
C386        C387   1.418       .  A
C387        C388   1.401       .  A
C387        N394   1.430       .  S
C388        C389   1.397       .  A
C388        H393   1.084       .  S
C389        C390   1.407       .  A
C390        N391   1.433       .  S
N391        O395   1.262       .  A
N391        O396   1.262       .  A
N394        O398   1.259       .  A
N394        O397   1.262       .  A
C399        C400   1.400       .  A
C399        C404   1.406       .  A
C399        H406   1.083       .  S
C400        C401   1.404       .  A
C401        C402   1.397       .  A
C401        N408   1.431       .  S
C402        C403   1.404       .  A
C402        H407   1.083       .  S
C403        C404   1.420       .  A
C404        N405   1.443       .  S
N405        O409   1.263       .  A
N405        O410   1.262       .  A
N408        O412   1.262       .  A
N408        O411   1.262       .  A
C413        C414   1.404       .  A
C413        C418   1.402       .  A
C413        H420   1.083       .  S
C414        C415   1.413       .  A
C415        C416   1.403       .  A
C415        N422   1.434       .  S
C416        C417   1.407       .  A
C416        H421   1.082       .  S
C417        C418   1.417       .  A
C418        N419   1.433       .  S
N419        O423   1.263       .  A
N419        O424   1.259       .  A
N422        O426   1.262       .  A
N422        O425   1.262       .  A
C427        C428   1.409       .  A
C427        C432   1.402       .  A
C427        H434   1.083       .  S
C428        C429   1.419       .  A
C429        C430   1.404       .  A
C429        N436   1.434       .  S
C430        C431   1.398       .  A
C430        H435   1.083       .  S
C431        C432   1.405       .  A
C432        N433   1.431       .  S
N433        O437   1.262       .  A
N433        O438   1.262       .  A
N436        O440   1.263       .  A
N436        O439   1.260       .  A
C441        C442   1.405       .  A
C441        C446   1.406       .  A
C441        H448   1.083       .  S
C442        C443   1.411       .  A
C443        C444   1.400       .  A
C443        N450   1.430       .  S
C444        C445   1.405       .  A
C444        H449   1.084       .  S
C445        C446   1.422       .  A
C446        N447   1.445       .  S
N447        O451   1.261       .  A
N447        O452   1.263       .  A
N450        O454   1.262       .  A
N450        O453   1.262       .  A
C455        C456   1.401       .  A
C455        C460   1.406       .  A
C455        H462   1.084       .  S
C456        C457   1.408       .  A
C457        C458   1.400       .  A
C457        N464   1.433       .  S
C458        C459   1.402       .  A
C458        H463   1.083       .  S
C459        C460   1.417       .  A
C460        N461   1.440       .  S
N461        O465   1.263       .  A
N461        O466   1.262       .  A
N464        O468   1.262       .  A
N464        O467   1.262       .  A
C469        C470   1.401       .  A
C469        C474   1.394       .  A
C469        H476   1.082       .  S
C470        C471   1.423       .  A
C471        C472   1.411       .  A
C471        N478   1.448       .  S
C472        C473   1.402       .  A
C472        H477   1.081       .  S
C473        C474   1.404       .  A
C474        N475   1.428       .  S
N475        O479   1.262       .  A
N475        O480   1.261       .  A
N478        O482   1.263       .  A
N478        O481   1.262       .  A
C483        C484   1.400       .  A
C483        C488   1.393       .  A
C483        H490   1.083       .  S
C484        C485   1.423       .  A
C485        C486   1.411       .  A
C485        N492   1.442       .  S
C486        C487   1.401       .  A
C486        H491   1.084       .  S
C487        C488   1.404       .  A
C488        N489   1.425       .  S
N489        O493   1.262       .  A
N489        O494   1.262       .  A
N492        O496   1.261       .  A
N492        O495   1.263       .  A
C497        C498   1.403       .  A
C497        C502   1.399       .  A
C497        H504   1.084       .  S
C498        C499   1.421       .  A
C499        C500   1.407       .  A
C499        N506   1.443       .  S
C500        C501   1.400       .  A
C500        H505   1.084       .  S
C501        C502   1.406       .  A
C502        N503   1.432       .  S
N503        O507   1.262       .  A
N503        O508   1.262       .  A
N506        O510   1.262       .  A
N506        O509   1.263       .  A
C511        C512   1.402       .  A
C511        C516   1.396       .  A
C511        H518   1.078       .  S
C512        C513   1.416       .  A
C513        C514   1.406       .  A
C513        N520   1.438       .  S
C514        C515   1.403       .  A
C514        H519   1.083       .  S
C515        C516   1.407       .  A
C516        N517   1.433       .  S
N517        O521   1.262       .  A
N517        O522   1.262       .  A
N520        O524   1.262       .  A
N520        O523   1.263       .  A
C525        C526   1.401       .  A
C525        C530   1.397       .  A
C525        H532   1.083       .  S
C526        C527   1.412       .  A
C527        C528   1.399       .  A
C527        N534   1.429       .  S
C528        C529   1.402       .  A
C528        H533   1.084       .  S
C529        C530   1.412       .  A
C530        N531   1.431       .  S
N531        O535   1.262       .  A
N531        O536   1.262       .  A
N534        O538   1.261       .  A
N534        O537   1.261       .  A
C539        C540   1.398       .  A
C539        C544   1.404       .  A
C539        H546   1.084       .  S
C540        C541   1.407       .  A
C541        C542   1.404       .  A
C541        N548   1.433       .  S
C542        C543   1.408       .  A
C542        H547   1.084       .  S
C543        C544   1.422       .  A
C544        N545   1.437       .  S
N545        O549   1.263       .  A
N545        O550   1.259       .  A
N548        O552   1.262       .  A
N548        O551   1.262       .  A
C553        C554   1.401       .  A
C553        C558   1.408       .  A
C553        H560   1.082       .  S
C554        C555   1.410       .  A
C555        C556   1.401       .  A
C555        N562   1.433       .  S
C556        C557   1.401       .  A
C556        H561   1.083       .  S
C557        C558   1.419       .  A
C558        N559   1.443       .  S
N559        O563   1.263       .  A
N559        O564   1.262       .  A
N562        O566   1.262       .  A
N562        O565   1.262       .  A
C567        C568   1.406       .  A
C567        C572   1.407       .  A
C567        H574   1.083       .  S
C568        C569   1.417       .  A
C569        C570   1.397       .  A
C569        N576   1.433       .  S
C570        C571   1.400       .  A
C570        H575   1.082       .  S
C571        C572   1.416       .  A
C572        N573   1.442       .  S
N573        O577   1.263       .  A
N573        O578   1.263       .  A
N576        O580   1.262       .  A
N576        O579   1.262       .  A
C581        C582   1.396       .  A
C581        C586   1.403       .  A
C581        H588   1.084       .  S
C582        C583   1.403       .  A
C583        C584   1.402       .  A
C583        N590   1.430       .  S
C584        C585   1.409       .  A
C584        H589   1.084       .  S
C585        C586   1.423       .  A
C586        N587   1.440       .  S
N587        O591   1.263       .  A
N587        O592   1.259       .  A
N590        O594   1.261       .  A
N590        O593   1.262       .  A
C595        C596   1.403       .  A
C595        C600   1.393       .  A
C595        H602   1.077       .  S
C596        C597   1.420       .  A
C597        C598   1.410       .  A
C597        N604   1.441       .  S
C598        C599   1.402       .  A
C598        H603   1.084       .  S
C599        C600   1.403       .  A
C600        N601   1.432       .  S
N601        O605   1.262       .  A
N601        O606   1.262       .  A
N604        O608   1.262       .  A
N604        O607   1.263       .  A
C609        C610   1.407       .  A
C609        C614   1.403       .  A
C609        H616   1.083       .  S
C610        C611   1.416       .  A
C611        C612   1.400       .  A
C611        N618   1.430       .  S
C612        C613   1.397       .  A
C612        H617   1.084       .  S
C613        C614   1.408       .  A
C614        N615   1.435       .  S
N615        O619   1.262       .  A
N615        O620   1.262       .  A
N618        O622   1.259       .  A
N618        O621   1.263       .  A
C623        C624   1.408       .  A
C623        C628   1.403       .  A
C623        H630   1.083       .  S
C624        C625   1.422       .  A
C625        C626   1.403       .  A
C625        N632   1.445       .  S
C626        C627   1.404       .  A
C626        H631   1.083       .  S
C627        C628   1.412       .  A
C628        N629   1.435       .  S
N629        O633   1.262       .  A
N629        O634   1.263       .  A
N632        O636   1.260       .  A
N632        O635   1.263       .  A
C637        C638   1.405       .  A
C637        C642   1.398       .  A
C637        H644   1.083       .  S
C638        C639   1.420       .  A
C639        C640   1.407       .  A
C639        N646   1.446       .  S
C640        C641   1.403       .  A
C640        H645   1.083       .  S
C641        C642   1.405       .  A
C642        N643   1.428       .  S
N643        O647   1.262       .  A
N643        O648   1.262       .  A
N646        O650   1.263       .  A
N646        O649   1.262       .  A
C651        C652   1.400       .  A
C651        C656   1.406       .  A
C651        H658   1.078       .  S
C652        C653   1.410       .  A
C653        C654   1.400       .  A
C653        N660   1.438       .  S
C654        C655   1.403       .  A
C654        H659   1.081       .  S
C655        C656   1.419       .  A
C656        N657   1.445       .  S
N657        O661   1.263       .  A
N657        O662   1.262       .  A
N660        O664   1.262       .  A
N660        O663   1.263       .  A
C665        C666   1.402       .  A
C665        C670   1.405       .  A
C665        H672   1.084       .  S
C666        C667   1.408       .  A
C667        C668   1.396       .  A
C667        N674   1.435       .  S
C668        C669   1.402       .  A
C668        H673   1.077       .  S
C669        C670   1.416       .  A
C670        N671   1.439       .  S
N671        O675   1.263       .  A
N671        O676   1.262       .  A
N674        O678   1.262       .  A
N674        O677   1.262       .  A
C679        C680   1.405       .  A
C679        C684   1.401       .  A
C679        H686   1.084       .  S
C680        C681   1.413       .  A
C681        C682   1.402       .  A
C681        N688   1.432       .  S
C682        C683   1.407       .  A
C682        H687   1.082       .  S
C683        C684   1.415       .  A
C684        N685   1.433       .  S
N685        O689   1.263       .  A
N685        O690   1.260       .  A
N688        O692   1.263       .  A
N688        O691   1.262       .  A
C693        C694   1.400       .  A
C693        C698   1.407       .  A
C693        H700   1.083       .  S
C694        C695   1.408       .  A
C695        C696   1.400       .  A
C695        N702   1.431       .  S
C696        C697   1.403       .  A
C696        H701   1.083       .  S
C697        C698   1.420       .  A
C698        N699   1.435       .  S
N699        O703   1.263       .  A
N699        O704   1.259       .  A
N702        O706   1.262       .  A
N702        O705   1.262       .  A
C707        C708   1.407       .  A
C707        C712   1.400       .  A
C707        H714   1.083       .  S
C708        C709   1.423       .  A
C709        C710   1.406       .  A
C709        N716   1.444       .  S
C710        C711   1.400       .  A
C710        H715   1.081       .  S
C711        C712   1.406       .  A
C712        N713   1.435       .  S
N713        O717   1.262       .  A
N713        O718   1.262       .  A
N716        O720   1.263       .  A
N716        O719   1.261       .  A
C721        C722   1.405       .  A
C721        C726   1.397       .  A
C721        H728   1.080       .  S
C722        C723   1.418       .  A
C723        C724   1.405       .  A
C723        N730   1.435       .  S
C724        C725   1.399       .  A
C724        H729   1.084       .  S
C725        C726   1.404       .  A
C726        N727   1.429       .  S
N727        O731   1.262       .  A
N727        O732   1.262       .  A
N730        O734   1.261       .  A
N730        O733   1.263       .  A
C735        C736   1.406       .  A
C735        C740   1.401       .  A
C735        H742   1.083       .  S
C736        C737   1.416       .  A
C737        C738   1.402       .  A
C737        N744   1.437       .  S
C738        C739   1.405       .  A
C738        H743   1.083       .  S
C739        C740   1.412       .  A
C740        N741   1.435       .  S
N741        O745   1.262       .  A
N741        O746   1.263       .  A
N744        O748   1.263       .  A
N744        O747   1.259       .  A
C749        C750   1.403       .  A
C749        C754   1.396       .  A
C749        H756   1.078       .  S
C750        C751   1.415       .  A
C751        C752   1.403       .  A
C751        N758   1.438       .  S
C752        C753   1.402       .  A
C752        H757   1.084       .  S
C753        C754   1.407       .  A
C754        N755   1.435       .  S
N755        O759   1.262       .  A
N755        O760   1.262       .  A
N758        O762   1.262       .  A
N758        O761   1.263       .  A
C763        C764   1.403       .  A
C763        C768   1.403       .  A
C763        H770   1.083       .  S
C764        C765   1.412       .  A
C765        C766   1.400       .  A
C765        N772   1.432       .  S
C766        C767   1.404       .  A
C766        H771   1.081       .  S
C767        C768   1.416       .  A
C768        N769   1.433       .  S
N769        O773   1.260       .  A
N769        O774   1.262       .  A
N772        O776   1.262       .  A
N772        O775   1.262       .  A
C777        C778   1.404       .  A
C777        C782   1.410       .  A
C777        H784   1.083       .  S
C778        C779   1.407       .  A
C779        C780   1.394       .  A
C779        N786   1.429       .  S
C780        C781   1.402       .  A
C780        H785   1.077       .  S
C781        C782   1.420       .  A
C782        N783   1.442       .  S
N783        O787   1.262       .  A
N783        O788   1.263       .  A
N786        O790   1.261       .  A
N786        O789   1.262       .  A
C791        C792   1.401       .  A
C791        C796   1.401       .  A
C791        H798   1.081       .  S
C792        C793   1.412       .  A
C793        C794   1.404       .  A
C793        N800   1.436       .  S
C794        C795   1.407       .  A
C794        H799   1.083       .  S
C795        C796   1.418       .  A
C796        N797   1.435       .  S
N797        O801   1.262       .  A
N797        O802   1.262       .  A
N800        O804   1.263       .  A
N800        O803   1.262       .  A
C805        C806   1.402       .  A
C805        C810   1.407       .  A
C805        H812   1.082       .  S
C806        C807   1.411       .  A
C807        C808   1.399       .  A
C807        N814   1.436       .  S
C808        C809   1.403       .  A
C808        H813   1.083       .  S
C809        C810   1.420       .  A
C810        N811   1.448       .  S
N811        O815   1.263       .  A
N811        O816   1.261       .  A
N814        O818   1.262       .  A
N814        O817   1.262       .  A
C819        C820   1.401       .  A
C819        C824   1.409       .  A
C819        H826   1.081       .  S
C820        C821   1.403       .  A
C821        C822   1.394       .  A
C821        N828   1.426       .  S
C822        C823   1.401       .  A
C822        H827   1.082       .  S
C823        C824   1.421       .  A
C824        N825   1.444       .  S
N825        O829   1.263       .  A
N825        O830   1.262       .  A
N828        O832   1.262       .  A
N828        O831   1.262       .  A
C833        C834   1.402       .  A
C833        C838   1.409       .  A
C833        H840   1.084       .  S
C834        C835   1.406       .  A
C835        C836   1.397       .  A
C835        N842   1.433       .  S
C836        C837   1.405       .  A
C836        H841   1.082       .  S
C837        C838   1.419       .  A
C838        N839   1.442       .  S
N839        O843   1.263       .  A
N839        O844   1.262       .  A
N842        O846   1.262       .  A
N842        O845   1.262       .  A
C847        C848   1.402       .  A
C847        C852   1.405       .  A
C847        H854   1.082       .  S
C848        C849   1.409       .  A
C849        C850   1.402       .  A
C849        N856   1.434       .  S
C850        C851   1.404       .  A
C850        H855   1.079       .  S
C851        C852   1.418       .  A
C852        N853   1.438       .  S
N853        O857   1.261       .  A
N853        O858   1.263       .  A
N856        O860   1.262       .  A
N856        O859   1.262       .  A
C861        C862   1.406       .  A
C861        C866   1.407       .  A
C861        H868   1.083       .  S
C862        C863   1.413       .  A
C863        C864   1.397       .  A
C863        N870   1.431       .  S
C864        C865   1.405       .  A
C864        H869   1.083       .  S
C865        C866   1.420       .  A
C866        N867   1.443       .  S
N867        O871   1.263       .  A
N867        O872   1.261       .  A
N870        O874   1.262       .  A
N870        O873   1.262       .  A
C875        C876   1.404       .  A
C875        C880   1.398       .  A
C875        H882   1.084       .  S
C876        C877   1.422       .  A
C877        C878   1.407       .  A
C877        N884   1.446       .  S
C878        C879   1.400       .  A
C878        H883   1.084       .  S
C879        C880   1.405       .  A
C880        N881   1.434       .  S
N881        O885   1.262       .  A
N881        O886   1.262       .  A
N884        O888   1.263       .  A
N884        O887   1.261       .  A
