geometry optimzed in LAMMPS
_audit_creation_date              2020-12-01 
_audit_creation_method            'lammps2cif' 
_symmetry_space_group_name_H-M    'P1' 
_symmetry_Int_Tables_number       1 
_symmetry_cell_setting            triclinic 
loop_ 
_symmetry_equiv_pos_as_xyz 
  x,y,z 
_cell_length_a                    54.98216215 
_cell_length_b                    54.829578133573094 
_cell_length_c                    27.137111886457618 
_cell_angle_alpha                 89.9480107326779 
_cell_angle_beta                  90.0617588098667 
_cell_angle_gamma                 119.90527696741412 
loop_ 
_atom_site_label 
_atom_site_type_symbol 
_atom_site_fract_x 
_atom_site_fract_y 
_atom_site_fract_z 
_atom_site_charge 
C1          C  0.25284299  0.47901789  0.02648790     0.02300
C2          C  0.22769446  0.48019660  0.02609696     0.02200
C3          C  0.22407018  0.99686812  0.99123957    -0.18300
C4          C  0.24516606  0.01276496  0.95707439     0.02300
C5          C  0.27068821  0.01218995  0.95825359     0.02200
C6          C  0.27407395  0.49504456  0.99257917    -0.18300
H7          H  0.29352901  0.49453717  0.99348179     0.04300
H8          H  0.20464368  0.99744659  0.99078498     0.04300
O9          O  0.28403479  0.36649033  0.20111884    -0.71800
O10         O  0.28338388  0.41663677  0.29706009    -0.72000
O11         O  0.28457851  0.36818378  0.30005345    -0.71900
O12         O  0.28298096  0.41479822  0.19802474    -0.71900
O13         O  0.23742069  0.39112562  0.19871880    -0.71900
O14         O  0.23896770  0.34484122  0.30074481    -0.71900
O15         O  0.23782549  0.39281234  0.29776756    -0.71800
O16         O  0.23846263  0.34321606  0.20155928    -0.72000
V17         V  0.28288746  0.39109370  0.24912574     1.35200
V18         V  0.23908246  0.36846622  0.24972721     1.35200
C19         C  0.26129666  0.34657441  0.18447782     0.77400
C20         C  0.26041554  0.41307875  0.31403291     0.77500
C21         C  0.26198135  0.34882249  0.31810855     0.77400
C22         C  0.25989389  0.41044349  0.18025415     0.77300
O23         O  0.25568355  0.10778574  0.69529420    -0.71800
O24         O  0.25354072  0.14888616  0.80539493    -0.72000
O25         O  0.25532353  0.10140444  0.79317160    -0.71900
O26         O  0.25392051  0.15522981  0.70751904    -0.71900
O27         O  0.20860375  0.12902550  0.70078545    -0.71900
O28         O  0.20977807  0.07979730  0.79807290    -0.71900
O29         O  0.20803305  0.12781132  0.79985665    -0.71800
O30         O  0.21041697  0.08111295  0.69882716    -0.72000
V31         V  0.25375674  0.12787485  0.75034389     1.35200
V32         V  0.20999979  0.10484363  0.74942761     1.35200
C33         C  0.23350884  0.08701232  0.67891089     0.77400
C34         C  0.23049515  0.14591823  0.82036479     0.77500
C35         C  0.23282351  0.08199467  0.81131285     0.77400
C36         C  0.23112726  0.15074616  0.68837619     0.77300
O37         O  0.39169216  0.15156685  0.69532529    -0.71800
O38         O  0.34773470  0.10412615  0.79898979    -0.72000
O39         O  0.39465985  0.15371137  0.79420920    -0.71900
O40         O  0.34448715  0.10143786  0.70055305    -0.71900
O41         O  0.37070768  0.08218949  0.69558497    -0.71900
O42         O  0.41790353  0.13132427  0.79625394    -0.71900
O43         O  0.37035665  0.08111032  0.79524096    -0.71800
O44         O  0.41808716  0.13250896  0.69720283    -0.72000
V45         V  0.37014093  0.12729882  0.74712348     1.35200
V46         V  0.39380000  0.10713120  0.74604295     1.35200
C47         C  0.41269761  0.15058198  0.67908886     0.77400
C48         C  0.35147790  0.08464012  0.81500946     0.77500
C49         C  0.41429765  0.15092499  0.81244904     0.77400
C50         C  0.34927801  0.08318962  0.68167442     0.77300
O51         O  0.12885210  0.41777589  0.19286981    -0.71800
O52         O  0.08237555  0.37137626  0.29663388    -0.72000
O53         O  0.12912180  0.42202713  0.29179853    -0.71900
O54         O  0.08214346  0.36716015  0.19780102    -0.71900
O55         O  0.10901311  0.34862826  0.20055827    -0.71900
O56         O  0.15330033  0.40065965  0.29938654    -0.71900
O57         O  0.10686005  0.35026582  0.29981348    -0.71800
O58         O  0.15550867  0.39914934  0.20115659    -0.72000
V59         V  0.10608483  0.39420397  0.24487947     1.35200
V60         V  0.13060005  0.37499889  0.25010573     1.35200
C61         C  0.15028289  0.41653163  0.17998028     0.77400
C62         C  0.08676801  0.35295272  0.31604131     0.77500
C63         C  0.14896271  0.42031705  0.31190983     0.77400
C64         C  0.08815274  0.34909800  0.18206778     0.77300
C65         C  0.48807618  0.22923792  0.95968046     0.02300
C66         C  0.49072738  0.25637903  0.95870856     0.02200
C67         C  0.50708333  0.27620414  0.99470302    -0.18300
C68         C  0.02125338  0.26979648  0.03083506     0.02300
C69         C  0.01896056  0.24298432  0.03134920     0.02200
C70         C  0.00222876  0.22289417  0.99615286    -0.18300
H71         H  0.99969620  0.20201242  0.99802939     0.04300
H72         H  0.50888148  0.29681644  0.99451931     0.04300
C73         C  0.48565005  0.23475064  0.53875445     0.02300
C74         C  0.48896709  0.26200815  0.54231681     0.02200
C75         C  0.50592698  0.28269553  0.50804818    -0.18300
C76         C  0.02007858  0.27689132  0.47093948     0.02300
C77         C  0.01644205  0.24945939  0.46688417     0.02200
C78         C  0.49896889  0.22868558  0.50059869    -0.18300
H79         H  0.99563987  0.20753582  0.49715964     0.04300
H80         H  0.50840506  0.30354846  0.51064066     0.04300
O81         O  0.15386580  0.25380175  0.21232887    -0.71800
O82         O  0.09926620  0.25551108  0.29559814    -0.72000
O83         O  0.14767256  0.25577855  0.31004831    -0.71900
O84         O  0.10548491  0.25363620  0.19786743    -0.71900
O85         O  0.07897739  0.20842625  0.20708715    -0.71900
O86         O  0.12896475  0.21029978  0.30622113    -0.71900
O87         O  0.08012522  0.21033592  0.30646445    -0.71800
O88         O  0.12785840  0.20830525  0.20717944    -0.72000
V89         V  0.12616043  0.25388182  0.25401223     1.35200
V90         V  0.10433102  0.21008861  0.25668732     1.35200
C91         C  0.14960862  0.23074076  0.19431178     0.77400
C92         C  0.08111995  0.23329623  0.31676960     0.77500
C93         C  0.14616760  0.23343682  0.32614621     0.77400
C94         C  0.08457110  0.23073581  0.18418018     0.77300
O95         O  0.41930225  0.29238303  0.70633159    -0.71800
O96         O  0.36780209  0.28648678  0.80580232    -0.72000
O97         O  0.41906058  0.29119071  0.80549426    -0.71900
O98         O  0.36819783  0.28761431  0.70637103    -0.71900
O99         O  0.34849134  0.24211903  0.70610135    -0.71900
O100        O  0.40027973  0.24568822  0.80214945    -0.71900
O101        O  0.34924986  0.24102190  0.80541972    -0.71800
O102        O  0.39927382  0.24674596  0.70382635    -0.72000
V103        V  0.39319214  0.28856435  0.75603244     1.35200
V104        V  0.37463102  0.24480389  0.75447499     1.35200
C105        C  0.41792340  0.27048831  0.68823979     0.77400
C106        C  0.35008893  0.26274884  0.82318622     0.77500
C107        C  0.41857127  0.26899108  0.81985940     0.77400
C108        C  0.34995460  0.26418341  0.68864577     0.77300
C109        C  0.22767225  0.23925785  0.04404762     0.02300
C110        C  0.25174203  0.26631755  0.03854851     0.02200
C111        C  0.27178754  0.27088812  0.00232550    -0.18300
C112        C  0.26776139  0.24932105  0.96991413     0.02300
C113        C  0.24346202  0.22266254  0.97454966     0.02200
C114        C  0.22412243  0.21761569  0.01218158    -0.18300
H115        H  0.20627985  0.19666396  0.01649306     0.04300
H116        H  0.29044202  0.29140884  0.99898496     0.04300
C117        C  0.22827575  0.24765705  0.47193032     0.02300
C118        C  0.25471990  0.27240499  0.46966869     0.02200
C119        C  0.27577805  0.27642730  0.50339435    -0.18300
C120        C  0.27065355  0.25619189  0.53980483     0.02300
C121        C  0.24370168  0.23186219  0.54278312     0.02200
C122        C  0.22298155  0.22770116  0.50848020    -0.18300
H123        H  0.20255878  0.20881462  0.51030742     0.04300
H124        H  0.29618679  0.29528347  0.50117543     0.04300
C125        C  0.22890235  0.48894274  0.45746238     0.02300
C126        C  0.25184179  0.48418413  0.46136039     0.02200
C127        C  0.27189465  0.49772167  0.49847543    -0.18300
C128        C  0.26995660  0.01651478  0.53116017     0.02300
C129        C  0.24673600  0.02107888  0.52705421     0.02200
C130        C  0.22643952  0.50703067  0.49059570    -0.18300
H131        H  0.20861823  0.51035002  0.48778462     0.04300
H132        H  0.28870300  0.49298922  0.50249644     0.04300
C133        C  0.30542036  0.24090323  0.93956952    -0.26400
C134        C  0.28966252  0.25436118  0.93276196    -0.14400
C135        C  0.29458808  0.27138173  0.89050673     0.36200
C136        C  0.31522535  0.27450055  0.85655732    -0.25800
C137        C  0.33047616  0.26040512  0.86271957    -0.15000
C138        C  0.32577529  0.24368987  0.90544387     0.37300
N139        N  0.34135294  0.22960759  0.91614310    -0.89300
H140        H  0.30192812  0.22809740  0.97210820     0.18400
H141        H  0.31864422  0.28727835  0.82398389     0.18400
N142        N  0.27873738  0.28518785  0.88006120    -0.88300
H143        H  0.35127786  0.23707272  0.95013490     0.35800
H144        H  0.35746406  0.23474230  0.89091579     0.40900
H145        H  0.26353797  0.28092693  0.90684174     0.40500
H146        H  0.26784023  0.27680234  0.84713941     0.35400
C147        C  0.32430755  0.28425078  0.64369420    -0.26400
C148        C  0.33094927  0.26267425  0.64830545    -0.14400
C149        C  0.31959513  0.24035881  0.61356855     0.36200
C150        C  0.30144998  0.23970037  0.57680514    -0.25800
C151        C  0.29346744  0.26029019  0.57428021    -0.15000
C152        C  0.30556806  0.28312168  0.60727245     0.37300
N153        N  0.29793377  0.30454669  0.60524629    -0.89300
H154        H  0.33297749  0.30165784  0.66946929     0.18400
H155        H  0.29273858  0.22238671  0.55082850     0.18400
N156        N  0.32621641  0.21818040  0.61409353    -0.88300
H157        H  0.28942863  0.30516406  0.63935395     0.35800
H158        H  0.31622419  0.32387824  0.59996044     0.40900
H159        H  0.31847327  0.20656491  0.64653430     0.40500
H160        H  0.34801334  0.22702844  0.61278344     0.35400
C161        C  0.15971446  0.22241334  0.10958810    -0.26400
C162        C  0.16920432  0.23019956  0.15805361    -0.14400
C163        C  0.19738530  0.23861069  0.16985458     0.36200
C164        C  0.21533177  0.23933837  0.13253217    -0.25800
C165        C  0.20641587  0.23342986  0.08322200    -0.15000
C166        C  0.17797121  0.22433113  0.07200333     0.37300
N167        N  0.16724499  0.21828281  0.02267096    -0.89300
H168        H  0.13811476  0.21581353  0.10042925     0.18400
H169        H  0.23680776  0.24554269  0.14189505     0.18400
N170        N  0.20849398  0.24626280  0.21897675    -0.88300
H171        H  0.16788169  0.20070478  0.00970268     0.35800
H172        H  0.17973417  0.23549763  0.00014346     0.40900
H173        H  0.19327029  0.24422795  0.24413735     0.40500
H174        H  0.22393169  0.26753436  0.21843438     0.35400
C175        C  0.18671629  0.25080975  0.44627435    -0.26400
C176        C  0.20602091  0.24193449  0.43555817    -0.14400
C177        C  0.20410323  0.22831023  0.39028619     0.36200
C178        C  0.18331622  0.22460408  0.35639218    -0.25800
C179        C  0.16483271  0.23465355  0.36610147    -0.15000
C180        C  0.16608859  0.24736444  0.41217167     0.37300
N181        N  0.14684724  0.25681024  0.42581821    -0.89300
H182        H  0.18794335  0.26086104  0.48129545     0.18400
H183        H  0.18222836  0.21462218  0.32135955     0.18400
N184        N  0.22283134  0.21813571  0.37729100    -0.88300
H185        H  0.13590149  0.24541050  0.45699244     0.35800
H186        H  0.13168438  0.25218989  0.39874700     0.40900
H187        H  0.23722636  0.22158118  0.40526278     0.40500
H188        H  0.23445721  0.22963967  0.34670913     0.35400
C189        C  0.02802148  0.24783717  0.37824190    -0.26400
C190        C  0.03080179  0.24218052  0.42782076    -0.14400
C191        C  0.04830172  0.23095046  0.43984547     0.36200
C192        C  0.06338777  0.22670403  0.40227712    -0.25800
C193        C  0.06212528  0.23444428  0.35355039    -0.15000
C194        C  0.04411237  0.24482613  0.34116994     0.37300
N195        N  0.04246478  0.25248138  0.29111082    -0.89300
H196        H  0.01380598  0.25538311  0.36863987     0.18400
H197        H  0.07728636  0.21866430  0.41138952     0.18400
N198        N  0.05138722  0.22474464  0.49020540    -0.88300
H199        H  0.02853871  0.26019288  0.28828429     0.35800
H200        H  0.03404493  0.23413637  0.26994551     0.40900
H201        H  0.06089420  0.24368665  0.50973689     0.40500
H202        H  0.06494799  0.21657981  0.49260371     0.35400
C203        C  0.45135285  0.27227319  0.56524779    -0.26400
C204        C  0.47382789  0.26873905  0.58042004    -0.14400
C205        C  0.47931690  0.26868428  0.63143588     0.36200
C206        C  0.46108640  0.27021528  0.66567327    -0.25800
C207        C  0.43784871  0.27229757  0.65041380    -0.15000
C208        C  0.43323773  0.27403783  0.59956562     0.37300
N209        N  0.40991679  0.27640273  0.58133269    -0.89300
H210        H  0.44706721  0.27233884  0.52626030     0.18400
H211        H  0.46483799  0.26927536  0.70467226     0.18400
N212        N  0.00310472  0.26726411  0.64984413    -0.88300
H213        H  0.41809128  0.29551052  0.56241856     0.35800
H214        H  0.39769854  0.27729620  0.60990034     0.40900
H215        H  0.01582643  0.26721501  0.62139631     0.40500
H216        H  0.99557067  0.24833726  0.66910935     0.35400
C217        C  0.06178118  0.24303129  0.05910716    -0.26400
C218        C  0.03395899  0.23577883  0.06884466    -0.14400
C219        C  0.02206832  0.22429876  0.11530546     0.36200
C220        C  0.03874169  0.22133854  0.15132403    -0.25800
C221        C  0.06714128  0.23039551  0.14262962    -0.15000
C222        C  0.07867578  0.24082813  0.09544534     0.37300
N223        N  0.10732787  0.24961044  0.08304470    -0.89300
H224        H  0.07081626  0.25156277  0.02335663     0.18400
H225        H  0.02975109  0.21305139  0.18718392     0.18400
N226        N  0.99350145  0.21588779  0.12753812    -0.88300
H227        H  0.10700396  0.23673221  0.05435388     0.35800
H228        H  0.11789949  0.24650170  0.11208387     0.40900
H229        H  0.98298801  0.21876680  0.09805653     0.40500
H230        H  0.99395368  0.22894253  0.15600038     0.35400
C231        C  0.45541689  0.27085744  0.93923229    -0.26400
C232        C  0.47525172  0.26384411  0.92217442    -0.14400
C233        C  0.47840881  0.26184611  0.87098246     0.36200
C234        C  0.45990765  0.26429570  0.83828439    -0.25800
C235        C  0.43916354  0.26990338  0.85557590    -0.15000
C236        C  0.43733984  0.27397477  0.90662101     0.37300
N237        N  0.41704280  0.28042251  0.92689532    -0.89300
H238        H  0.45312621  0.27272775  0.97849315     0.18400
H239        H  0.46141597  0.26146652  0.79910451     0.18400
N240        N  0.49998801  0.25676363  0.85260801    -0.88300
H241        H  0.40358522  0.26359109  0.94943022     0.35800
H242        H  0.40464257  0.28221841  0.89961815     0.40900
H243        H  0.51933357  0.27410537  0.86204532     0.40500
H244        H  0.49931258  0.25557311  0.81413017     0.35400
C245        C  0.18052318  0.45223423  0.43490741    -0.26400
C246        C  0.20672709  0.47437683  0.42005993    -0.14400
C247        C  0.21218109  0.48089932  0.36974836     0.36200
C248        C  0.19212692  0.46394438  0.33474439    -0.25800
C249        C  0.16687101  0.44050016  0.34938136    -0.15000
C250        C  0.16066646  0.43475529  0.39981710     0.37300
N251        N  0.13464536  0.41081470  0.41501758    -0.89300
H252        H  0.17634488  0.44753842  0.47380907     0.18400
H253        H  0.19674099  0.46849479  0.29603733     0.18400
N254        N  0.23823785  0.50440311  0.35419483    -0.88300
H255        H  0.13327740  0.40971029  0.45346385     0.35800
H256        H  0.13476558  0.39271212  0.40331223     0.40900
H257        H  0.23375446  0.51803298  0.33431423     0.40500
H258        H  0.24797077  0.49699910  0.33019630     0.35400
C259        C  0.06754453  0.30454613  0.06602925    -0.26400
C260        C  0.03823142  0.29124119  0.06827356    -0.14400
C261        C  0.02538428  0.29758984  0.10706088     0.36200
C262        C  0.04202721  0.31677761  0.14364118    -0.25800
C263        C  0.07136960  0.32922500  0.14265428    -0.15000
C264        C  0.08431227  0.32312054  0.10328096     0.37300
N265        N  0.11437452  0.33641699  0.10034955    -0.89300
H266        H  0.07732778  0.30003021  0.03545584     0.18400
H267        H  0.03195228  0.32147797  0.17353049     0.18400
N268        N  0.99543630  0.28422627  0.10971920    -0.88300
H269        H  0.12041757  0.33132045  0.06715588     0.35800
H270        H  0.12098896  0.32785416  0.12817669     0.40900
H271        H  0.98992913  0.29992986  0.10968288     0.40500
H272        H  0.98904548  0.27351631  0.14330390     0.35400
C273        C  0.08261503  0.32733889  0.39359666    -0.26400
C274        C  0.06959637  0.33542513  0.35772625    -0.14400
C275        C  0.04072886  0.32643028  0.36226933     0.36200
C276        C  0.02536799  0.30852506  0.40141822    -0.25800
C277        C  0.03824888  0.29959975  0.43608285    -0.15000
C278        C  0.06748971  0.30998835  0.43307869     0.37300
N279        N  0.08255415  0.30363641  0.46944576    -0.89300
H280        H  0.10490771  0.33475270  0.39116380     0.18400
H281        H  0.50295594  0.30046238  0.40376823     0.18400
N282        N  0.02676417  0.33415197  0.32585951    -0.88300
H283        H  0.08979635  0.29132136  0.45258479     0.35800
H284        H  0.06969034  0.29209228  0.49877601     0.40900
H285        H  0.03391196  0.35562066  0.33005198     0.40500
H286        H  0.50516540  0.32386450  0.33255645     0.35400
C287        C  0.33932325  0.06477754  0.59600783    -0.26400
C288        C  0.33005245  0.06352897  0.64446320    -0.14400
C289        C  0.30191107  0.04481928  0.65630544     0.36200
C290        C  0.28318190  0.02797487  0.61950470    -0.25800
C291        C  0.29174636  0.03061879  0.57010291    -0.15000
C292        C  0.32048018  0.04880069  0.55858749     0.37300
N293        N  0.33088016  0.55281544  0.50912242    -0.89300
H294        H  0.36103636  0.07929472  0.58673216     0.18400
H295        H  0.26147408  0.01376109  0.62921315     0.18400
N296        N  0.29214725  0.04344311  0.70558996    -0.88300
H297        H  0.31894991  0.55839453  0.48676896     0.35800
H298        H  0.32902650  0.53404602  0.49620486     0.40900
H299        H  0.28347074  0.02267117  0.71785106     0.40500
H300        H  0.27623559  0.04857807  0.70425314     0.35400
C301        C  0.45932592  0.17844987  0.63891880    -0.26400
C302        C  0.43083340  0.17059792  0.64078920    -0.14400
C303        C  0.42040629  0.18292583  0.60744268     0.36200
C304        C  0.43860034  0.20309255  0.57372106    -0.25800
C305        C  0.46732848  0.21194973  0.57333130    -0.15000
C306        C  0.47785965  0.19930306  0.60630611     0.37300
N307        N  0.50711078  0.20750108  0.60899555    -0.89300
H308        H  0.46758427  0.16918923  0.66450889     0.18400
H309        H  0.43027415  0.21224009  0.54803494     0.18400
N310        N  0.39129282  0.17487353  0.60728726    -0.88300
H311        H  0.51410922  0.21502001  0.64459922     0.35800
H312        H  0.01937216  0.22417840  0.58540467     0.40900
H313        H  0.38319089  0.16719430  0.57223519     0.40500
H314        H  0.38979529  0.19290293  0.61349717     0.35400
C315        C  0.46076194  0.17648476  0.85407951    -0.26400
C316        C  0.43262747  0.17000757  0.85178037    -0.14400
C317        C  0.42257401  0.18157672  0.88763315     0.36200
C318        C  0.44059629  0.19911734  0.92429943    -0.25800
C319        C  0.46902269  0.20681086  0.92499518    -0.15000
C320        C  0.47920116  0.19505402  0.88994342     0.37300
N321        N  0.00846670  0.20332011  0.88890648    -0.89300
H322        H  0.46862371  0.16771518  0.82680965     0.18400
H323        H  0.43259268  0.20783280  0.95143224     0.18400
N324        N  0.39416029  0.17580544  0.88822327    -0.88300
H325        H  0.01285474  0.19451572  0.85841388     0.35800
H326        H  0.01265765  0.19472817  0.91991222     0.40900
H327        H  0.38093562  0.15403404  0.88897868     0.40500
H328        H  0.39037186  0.18396777  0.85619585     0.35400
C329        C  0.25804316  0.08328425  0.60530885    -0.26400
C330        C  0.23504469  0.07032953  0.63752116    -0.14400
C331        C  0.21452749  0.04185529  0.62997233     0.32600
C332        C  0.21852431  0.02661766  0.59241042    -0.25800
C333        C  0.24224684  0.03929461  0.56183476    -0.15000
C334        C  0.26154279  0.06837043  0.56687951     0.37300
N335        N  0.28435588  0.08360429  0.53315481    -0.89300
H336        H  0.27334694  0.10540737  0.60956433     0.18400
H337        H  0.20350361  0.00443257  0.58790001     0.18400
N338        N  0.19007424  0.02830361  0.66085539    -0.88300
H339        H  0.30310826  0.09028252  0.55240044     0.35800
H340        H  0.28381585  0.07100992  0.50393341     0.40900
H341        H  0.19672063  0.02710475  0.69637021     0.40500
H342        H  0.17681866  0.00757653  0.64939564     0.35400
C343        C  0.23985618  0.16049620  0.90706280    -0.26400
C344        C  0.23022748  0.16343860  0.86080035    -0.14400
C345        C  0.22305908  0.18462322  0.85334217     0.36200
C346        C  0.22664751  0.20289351  0.89209060    -0.25800
C347        C  0.23709489  0.20049604  0.93784504    -0.15000
C348        C  0.24304511  0.17854380  0.94603921     0.37300
N349        N  0.25334509  0.17460096  0.99237629    -0.89300
H350        H  0.24540137  0.14428505  0.91268973     0.18400
H351        H  0.22203455  0.21972484  0.88600875     0.18400
N352        N  0.21305233  0.18891859  0.80696208    -0.88300
H353        H  0.23839609  0.15494534  0.00613533     0.35800
H354        H  0.25533570  0.18944018  0.01848862     0.40900
H355        H  0.21115507  0.17431272  0.78048798     0.40500
H356        H  0.22800993  0.20873050  0.79378088     0.35400
C357        C  0.23475056  0.19609066  0.66644313    -0.26400
C358        C  0.23117651  0.17012882  0.65135517    -0.14400
C359        C  0.22929595  0.16350222  0.60094515     0.36200
C360        C  0.23216953  0.18368346  0.56610927    -0.25800
C361        C  0.23687169  0.21019066  0.58105813    -0.15000
C362        C  0.23700711  0.21605194  0.63192671     0.37300
N363        N  0.23887463  0.24160400  0.64984735    -0.89300
H364        H  0.23591140  0.20094277  0.70532163     0.18400
H365        H  0.23187528  0.17920349  0.52714883     0.18400
N366        N  0.22520218  0.13662693  0.58547942    -0.88300
H367        H  0.25766783  0.25267382  0.66941123     0.35800
H368        H  0.23927163  0.25449911  0.62119315     0.40900
H369        H  0.24290303  0.13550710  0.59611311     0.40500
H370        H  0.22412587  0.13504368  0.54704978     0.35400
C371        C  0.27754003  0.47702010  0.39275003    -0.26400
C372        C  0.25532234  0.46533277  0.42658237    -0.14400
C373        C  0.23588241  0.43628642  0.42515190     0.36200
C374        C  0.23791044  0.41979307  0.38770084    -0.25800
C375        C  0.25960821  0.43155457  0.35278448    -0.15000
C376        C  0.27985008  0.46043459  0.35558370     0.37300
N377        N  0.30206505  0.47298042  0.31989106    -0.89300
H378        H  0.29248509  0.99938284  0.39425775     0.18400
H379        H  0.22267308  0.39752317  0.38614659     0.18400
N380        N  0.21420794  0.42371987  0.46177099    -0.88300
H381        H  0.31519722  0.99437438  0.32738844     0.35800
H382        H  0.29288641  0.47182648  0.28556616     0.40900
H383        H  0.22393421  0.42576922  0.49584557     0.40500
H384        H  0.20146110  0.40216693  0.45527131     0.35400
C385        C  0.24039743  0.31962657  0.10820967    -0.26400
C386        C  0.26101110  0.32803059  0.14492990    -0.14400
C387        C  0.28036102  0.31823893  0.14352975     0.36200
C388        C  0.27773875  0.29912141  0.10659992    -0.25800
C389        C  0.25644560  0.28995906  0.07100428    -0.15000
C390        C  0.23823916  0.30122983  0.07067776     0.37300
N391        N  0.21768663  0.29485563  0.03268992    -0.89300
H392        H  0.22592829  0.32764480  0.10840858     0.18400
H393        H  0.29161490  0.29039884  0.10668889     0.18400
N394        N  0.30149696  0.32639501  0.18103531    -0.88300
H395        H  0.19781560  0.28338651  0.04868724     0.35800
H396        H  0.21915414  0.28254912  0.00485322     0.40900
H397        H  0.31606013  0.34768216  0.17574677     0.40500
H398        H  0.31258456  0.31563384  0.17659684     0.35400
C399        C  0.24727424  0.31085208  0.44005958    -0.26400
C400        C  0.25998118  0.29443698  0.43301920    -0.14400
C401        C  0.27508728  0.29731966  0.38940832     0.36200
C402        C  0.27627562  0.31598596  0.35262836    -0.25800
C403        C  0.26228092  0.33128455  0.35875353    -0.15000
C404        C  0.24807433  0.32904077  0.40329932     0.37300
N405        N  0.23457223  0.34520836  0.41234917    -0.89300
H406        H  0.23588696  0.30881163  0.47381523     0.18400
H407        H  0.28727068  0.31788202  0.31844939     0.18400
N408        N  0.28806833  0.28045373  0.38188993    -0.88300
H409        H  0.21863185  0.33969930  0.38638208     0.35800
H410        H  0.24938248  0.36652036  0.40798999     0.40900
H411        H  0.30412128  0.28668072  0.40789718     0.40500
H412        H  0.29762266  0.28451826  0.34724826     0.35400
C413        C  0.32608367  0.03811058  0.85753289    -0.26400
C414        C  0.33389834  0.06669383  0.85578442    -0.14400
C415        C  0.32330868  0.07759652  0.89163629     0.36200
C416        C  0.30421147  0.05970295  0.92675647    -0.25800
C417        C  0.29454239  0.03078647  0.92592689    -0.15000
C418        C  0.30622363  0.01999853  0.89208610     0.37300
N419        N  0.29699092  0.99053873  0.89120567    -0.89300
H420        H  0.33422277  0.02951531  0.83044653     0.18400
H421        H  0.29590830  0.06828092  0.95358429     0.18400
N422        N  0.33163955  0.10684316  0.89234335    -0.88300
H423        H  0.31451850  0.98813333  0.89647377     0.35800
H424        H  0.28881400  0.98282047  0.85621102     0.40900
H425        H  0.34019119  0.11484644  0.92702748     0.40500
H426        H  0.31364542  0.10856359  0.88814073     0.35400
C427        C  0.22949197  0.06623144  0.89744088    -0.26400
C428        C  0.23368839  0.06273286  0.84769934    -0.14400
C429        C  0.24026106  0.04204746  0.83353783     0.36200
C430        C  0.24298084  0.02533102  0.86974897    -0.25800
C431        C  0.23995028  0.02948358  0.91985875    -0.15000
C432        C  0.23291340  0.05000592  0.93392993     0.37300
N433        N  0.23007228  0.05480875  0.98513229    -0.89300
H434        H  0.22456060  0.08235902  0.90787115     0.18400
H435        H  0.24798770  0.00930634  0.85901464     0.18400
N436        N  0.24425618  0.03821980  0.78248979    -0.88300
H437        H  0.22478438  0.07056717  0.98908711     0.35800
H438        H  0.24970459  0.06234279  0.00171903     0.40900
H439        H  0.22517509  0.03163409  0.76453986     0.40500
H440        H  0.24875602  0.02191780  0.77848061     0.35400
C441        C  0.28033583  0.45552738  0.13415798    -0.26400
C442        C  0.25914664  0.42729071  0.13855726    -0.14400
C443        C  0.23742880  0.41549730  0.10319014     0.36200
C444        C  0.23693449  0.43246562  0.06509120    -0.25800
C445        C  0.25703435  0.46113106  0.06255397    -0.15000
C446        C  0.27927110  0.47275415  0.09687848     0.37300
N447        N  0.30011043  0.00211006  0.09468943    -0.89300
H448        H  0.29711074  0.46446616  0.16111186     0.18400
H449        H  0.22024420  0.42353829  0.03798179     0.18400
N450        N  0.21596907  0.38638291  0.10603075    -0.88300
H451        H  0.31508235  0.00722890  0.12246804     0.35800
H452        H  0.29006558  0.01366175  0.10183198     0.40900
H453        H  0.22557686  0.37430185  0.10013164     0.40500
H454        H  0.20124443  0.38128779  0.07780670     0.35400
C455        C  0.21339330  0.47319357  0.11346868    -0.26400
C456        C  0.20582570  0.46547499  0.06412311    -0.14400
C457        C  0.17886806  0.44249001  0.05297434     0.36200
C458        C  0.16045315  0.42783026  0.09169238    -0.25800
C459        C  0.16880365  0.43467495  0.14084251    -0.15000
C460        C  0.19548440  0.45745740  0.15199767     0.37300
N461        N  0.20436872  0.46432419  0.20233978    -0.89300
H462        H  0.23400883  0.99073976  0.12189942     0.18400
H463        H  0.13999073  0.40999311  0.08338427     0.18400
N464        N  0.16987791  0.43259441  0.00353892    -0.88300
H465        H  0.22439937  0.98206502  0.20420344     0.35800
H466        H  0.20614422  0.44766404  0.21711985     0.40900
H467        H  0.18547056  0.44402143  0.97766985     0.40500
H468        H  0.16616296  0.41196551  0.00157871     0.35400
C469        C  0.25284609  0.97902152  0.02648970     0.02300
C470        C  0.22769813  0.98020143  0.02610169     0.02200
C471        C  0.22406591  0.49686213  0.99123346    -0.18300
C472        C  0.24516249  0.51276060  0.95707076     0.02300
C473        C  0.27068591  0.51218792  0.95825319     0.02200
C474        C  0.27407600  0.99504633  0.99257845    -0.18300
H475        H  0.29353024  0.99453725  0.99347813     0.04300
H476        H  0.20463886  0.49743952  0.99077738     0.04300
O477        O  0.28404844  0.86649670  0.20111750    -0.71800
O478        O  0.28339591  0.91664473  0.29705250    -0.72000
O479        O  0.28459048  0.86819119  0.30005246    -0.71900
O480        O  0.28299335  0.91480384  0.19801752    -0.71900
O481        O  0.23743309  0.89113157  0.19871376    -0.71900
O482        O  0.23897976  0.84484753  0.30073863    -0.71900
O483        O  0.23783750  0.89281862  0.29776136    -0.71800
O484        O  0.23847612  0.84322313  0.20155401    -0.72000
V485        V  0.28290008  0.89110056  0.24912151     1.35200
V486        V  0.23909505  0.86847266  0.24972166     1.35200
C487        C  0.26131052  0.84658136  0.18447506     0.77400
C488        C  0.26042733  0.91308617  0.31402480     0.77500
C489        C  0.26199280  0.84882914  0.31810559     0.77400
C490        C  0.25990591  0.91044886  0.18024772     0.77300
O491        O  0.25567802  0.60778609  0.69529820    -0.71800
O492        O  0.25353477  0.64888791  0.80539495    -0.72000
O493        O  0.25532060  0.60140745  0.79317598    -0.71900
O494        O  0.25391083  0.65522850  0.70751919    -0.71900
O495        O  0.20859392  0.62902277  0.70079277    -0.71900
O496        O  0.20977506  0.57979633  0.79807721    -0.71900
O497        O  0.20802661  0.62780881  0.79986424    -0.71800
O498        O  0.21041163  0.58111208  0.69883155    -0.72000
V499        V  0.25375061  0.62787572  0.75034604     1.35200
V500        V  0.20999368  0.60484194  0.74943340     1.35200
C501        C  0.23350382  0.58701184  0.67891584     0.77400
C502        C  0.23048914  0.64591807  0.82036828     0.77500
C503        C  0.23282144  0.58199591  0.81131694     0.77400
C504        C  0.23111625  0.65074386  0.68838032     0.77300
O505        O  0.39169574  0.65156953  0.69533106    -0.71800
O506        O  0.34773358  0.60412532  0.79898769    -0.72000
O507        O  0.39466044  0.65370956  0.79421550    -0.71900
O508        O  0.34448912  0.60144088  0.70055129    -0.71900
O509        O  0.37070650  0.58218886  0.69558702    -0.71900
O510        O  0.41790455  0.63132280  0.79625442    -0.71900
O511        O  0.37035611  0.58111004  0.79524279    -0.71800
O512        O  0.41808746  0.63250791  0.69720325    -0.72000
V513        V  0.37014225  0.62729960  0.74712541     1.35200
V514        V  0.39379991  0.60713043  0.74604401     1.35200
C515        C  0.41270004  0.65058322  0.67909273     0.77400
C516        C  0.35147651  0.58463946  0.81500895     0.77500
C517        C  0.41429852  0.65092272  0.81245306     0.77400
C518        C  0.34927787  0.58319057  0.68167536     0.77300
O519        O  0.12885095  0.91776843  0.19286428    -0.71800
O520        O  0.08237580  0.87136949  0.29663079    -0.72000
O521        O  0.12912282  0.92202050  0.29179347    -0.71900
O522        O  0.08214191  0.86715281  0.19779808    -0.71900
O523        O  0.10901240  0.84862174  0.20055158    -0.71900
O524        O  0.15329977  0.90065146  0.29938225    -0.71900
O525        O  0.10685889  0.85025744  0.29980692    -0.71800
O526        O  0.15550831  0.89914287  0.20115160    -0.72000
V527        V  0.10608447  0.89419692  0.24487539     1.35200
V528        V  0.13059936  0.87499150  0.25010011     1.35200
C529        C  0.15028227  0.91652501  0.17997513     0.77400
C530        C  0.08676729  0.85294476  0.31603588     0.77500
C531        C  0.14896328  0.92030969  0.31190523     0.77400
C532        C  0.08815155  0.84909127  0.18206284     0.77300
C533        C  0.48807792  0.72923583  0.95968386     0.02300
C534        C  0.49072653  0.75637582  0.95871153     0.02200
C535        C  0.50707904  0.77620095  0.99470920    -0.18300
C536        C  0.02125604  0.76979276  0.03082424     0.02300
C537        C  0.01896075  0.74297963  0.03133972     0.02200
C538        C  0.00222512  0.72288852  0.99614776    -0.18300
H539        H  0.99968973  0.70200576  0.99802759     0.04300
H540        H  0.50887534  0.79681244  0.99452472     0.04300
C541        C  0.48565289  0.73475075  0.53875509     0.02300
C542        C  0.48896718  0.76200733  0.54231345     0.02200
C543        C  0.50592654  0.78269470  0.50804433    -0.18300
C544        C  0.02007822  0.77688943  0.47094180     0.02300
C545        C  0.01644088  0.74945713  0.46688791     0.02200
C546        C  0.49897349  0.72868649  0.50060171    -0.18300
H547        H  0.99563809  0.70753436  0.49716657     0.04300
H548        H  0.50840272  0.80354693  0.51063476     0.04300
O549        O  0.15386669  0.75380894  0.21232270    -0.71800
O550        O  0.09926728  0.75551387  0.29559905    -0.72000
O551        O  0.14767506  0.75578319  0.31004331    -0.71900
O552        O  0.10548443  0.75364064  0.19786644    -0.71900
O553        O  0.07897954  0.70843016  0.20708329    -0.71900
O554        O  0.12896818  0.71030454  0.30621417    -0.71900
O555        O  0.08012756  0.71033858  0.30646150    -0.71800
O556        O  0.12786179  0.70831224  0.20717212    -0.72000
V557        V  0.12616139  0.75388656  0.25400947     1.35200
V558        V  0.10433379  0.71009326  0.25668219     1.35200
C559        C  0.14961079  0.73074882  0.19430372     0.77400
C560        C  0.08112174  0.73329836  0.31676994     0.77500
C561        C  0.14617085  0.73344146  0.32613947     0.77400
C562        C  0.08457219  0.73073955  0.18417703     0.77300
O563        O  0.41929616  0.79237289  0.70632178    -0.71800
O564        O  0.36780596  0.78648218  0.80580584    -0.72000
O565        O  0.41906263  0.79118345  0.80548429    -0.71900
O566        O  0.36819304  0.78760689  0.70637521    -0.71900
O567        O  0.34848599  0.74211160  0.70610592    -0.71900
O568        O  0.40027854  0.74568046  0.80214559    -0.71900
O569        O  0.34925041  0.74101681  0.80542432    -0.71800
O570        O  0.39926759  0.74673568  0.70382237    -0.72000
V571        V  0.39319091  0.78855692  0.75602937     1.35200
V572        V  0.37462797  0.74479620  0.75447504     1.35200
C573        C  0.41791622  0.77047741  0.68823170     0.77400
C574        C  0.35009259  0.76274500  0.82319155     0.77500
C575        C  0.41857199  0.76898359  0.81985181     0.77400
C576        C  0.34994838  0.76417602  0.68865213     0.77300
C577        C  0.22767780  0.73926819  0.04404108     0.02300
C578        C  0.25175264  0.76632481  0.03854819     0.02200
C579        C  0.27179936  0.77089198  0.00233045    -0.18300
C580        C  0.26777011  0.74932444  0.96991847     0.02300
C581        C  0.24346646  0.72266898  0.97454724     0.02200
C582        C  0.22412494  0.71762527  0.01217404    -0.18300
H583        H  0.20627891  0.69667534  0.01648147     0.04300
H584        H  0.29045697  0.79141064  0.99899372     0.04300
C585        C  0.22827613  0.74765796  0.47192608     0.02300
C586        C  0.25472089  0.77240554  0.46966720     0.02200
C587        C  0.27577672  0.77642685  0.50339801    -0.18300
C588        C  0.27064932  0.75619102  0.53980997     0.02300
C589        C  0.24369667  0.73186182  0.54278480     0.02200
C590        C  0.22297911  0.72770184  0.50847703    -0.18300
H591        H  0.20255576  0.70881590  0.51030162     0.04300
H592        H  0.29618588  0.79528266  0.50118226     0.04300
C593        C  0.22890548  0.98894205  0.45745425     0.02300
C594        C  0.25184912  0.98418981  0.46134807     0.02200
C595        C  0.27190286  0.99773061  0.49846036    -0.18300
C596        C  0.26995123  0.51650813  0.53117392     0.02300
C597        C  0.24673370  0.52107682  0.52706517     0.02200
C598        C  0.22644045  0.00702863  0.49058806    -0.18300
H599        H  0.20861662  0.01034402  0.48777949     0.04300
H600        H  0.28871387  0.99300189  0.50247907     0.04300
C601        C  0.30543327  0.74091064  0.93958415    -0.26400
C602        C  0.28967054  0.75436268  0.93276779    -0.14400
C603        C  0.29459004  0.77137572  0.89050444     0.36200
C604        C  0.31522660  0.77449352  0.85655525    -0.25800
C605        C  0.33048207  0.76040368  0.86272575    -0.15000
C606        C  0.32578695  0.74369543  0.90545749     0.37300
N607        N  0.34136841  0.72961769  0.91616115    -0.89300
H608        H  0.30194504  0.72811027  0.97212899     0.18400
H609        H  0.31864104  0.78726554  0.82397541     0.18400
N610        N  0.27873378  0.78517505  0.88005096    -0.88300
H611        H  0.35129724  0.73708973  0.95014869     0.35800
H612        H  0.35747582  0.73474854  0.89092856     0.40900
H613        H  0.26353652  0.78091691  0.90683427     0.40500
H614        H  0.26783404  0.77678174  0.84713404     0.35400
C615        C  0.32430357  0.78424655  0.64370081    -0.26400
C616        C  0.33094134  0.76266725  0.64831478    -0.14400
C617        C  0.31958315  0.74035025  0.61358110     0.36200
C618        C  0.30143966  0.73969403  0.57681660    -0.25800
C619        C  0.29346154  0.76028703  0.57428799    -0.15000
C620        C  0.30556513  0.78311941  0.60727835     0.37300
N621        N  0.29793540  0.80454769  0.60524909    -0.89300
H622        H  0.33297637  0.80165474  0.66947356     0.18400
H623        H  0.29272608  0.72237958  0.55084162     0.18400
N624        N  0.32619875  0.71816793  0.61411006    -0.88300
H625        H  0.28943114  0.80516765  0.63935604     0.35800
H626        H  0.31622775  0.82387756  0.59996212     0.40900
H627        H  0.31845472  0.70655475  0.64655310     0.40500
H628        H  0.34799509  0.72701192  0.61279807     0.35400
C629        C  0.15971904  0.72242772  0.10957661    -0.26400
C630        C  0.16920731  0.73021014  0.15804402    -0.14400
C631        C  0.19738823  0.73862142  0.16984561     0.36200
C632        C  0.21533499  0.73934909  0.13252396    -0.25800
C633        C  0.20642070  0.73344339  0.08321275    -0.15000
C634        C  0.17797706  0.72434831  0.07199170     0.37300
N635        N  0.16725329  0.71830656  0.02265738    -0.89300
H636        H  0.13811977  0.71582907  0.10041655     0.18400
H637        H  0.23681006  0.74555082  0.14188887     0.18400
N638        N  0.20849688  0.74627420  0.21896767    -0.88300
H639        H  0.16788904  0.70072955  0.00968195     0.35800
H640        H  0.17974480  0.73552420  0.00013637     0.40900
H641        H  0.19327332  0.74423986  0.24412796     0.40500
H642        H  0.22393449  0.76754582  0.21842425     0.35400
C643        C  0.18671521  0.75080785  0.44627110    -0.26400
C644        C  0.20602256  0.74193652  0.43555205    -0.14400
C645        C  0.20410817  0.72831667  0.39027647     0.36200
C646        C  0.18332181  0.72461135  0.35638171    -0.25800
C647        C  0.16483605  0.73465774  0.36609382    -0.15000
C648        C  0.16608870  0.74736413  0.41216726     0.37300
N649        N  0.14684536  0.75680704  0.42581598    -0.89300
H650        H  0.18793954  0.76085533  0.48129517     0.18400
H651        H  0.18223608  0.71463252  0.32134662     0.18400
N652        N  0.22283885  0.71814563  0.37727910    -0.88300
H653        H  0.13589814  0.74540385  0.45698623     0.35800
H654        H  0.13168397  0.75218890  0.39874257     0.40900
H655        H  0.23723264  0.72158981  0.40525158     0.40500
H656        H  0.23446584  0.72965320  0.34670014     0.35400
C657        C  0.02801942  0.74783359  0.37824474    -0.26400
C658        C  0.03080023  0.74217750  0.42782384    -0.14400
C659        C  0.04830205  0.73094954  0.43984803     0.36200
C660        C  0.06338930  0.72670477  0.40227919    -0.25800
C661        C  0.06212652  0.73444503  0.35355233    -0.15000
C662        C  0.04411218  0.74482533  0.34117272     0.37300
N663        N  0.04246559  0.75248265  0.29111450    -0.89300
H664        H  0.01380247  0.75537768  0.36864263     0.18400
H665        H  0.07728899  0.71866634  0.41139138     0.18400
N666        N  0.05138812  0.72474412  0.49020792    -0.88300
H667        H  0.02853834  0.76019275  0.28828847     0.35800
H668        H  0.03404814  0.73413904  0.26994556     0.40900
H669        H  0.06089350  0.74368592  0.50973965     0.40500
H670        H  0.06495059  0.71658114  0.49260607     0.35400
C671        C  0.45135243  0.77227240  0.56524161    -0.26400
C672        C  0.47382670  0.76873724  0.58041523    -0.14400
C673        C  0.47931230  0.76867775  0.63143139     0.36200
C674        C  0.46107806  0.77020271  0.66566734    -0.25800
C675        C  0.43784123  0.77228596  0.65040633    -0.15000
C676        C  0.43323443  0.77403280  0.59955847     0.37300
N677        N  0.40991524  0.77640048  0.58132467    -0.89300
H678        H  0.44706965  0.77234208  0.52625375     0.18400
H679        H  0.46482708  0.76925909  0.70466639     0.18400
N680        N  0.00310775  0.76726706  0.64984827    -0.88300
H681        H  0.41809156  0.79551144  0.56242028     0.35800
H682        H  0.39769371  0.77728872  0.60989171     0.40900
H683        H  0.01582790  0.76721585  0.62139997     0.40500
H684        H  0.99557292  0.74834050  0.66911537     0.35400
C685        C  0.06178509  0.74303584  0.05910225    -0.26400
C686        C  0.03395977  0.73577411  0.06883354    -0.14400
C687        C  0.02206634  0.72428604  0.11528884     0.36200
C688        C  0.03874089  0.72133061  0.15131095    -0.25800
C689        C  0.06714326  0.73039755  0.14262375    -0.15000
C690        C  0.07867993  0.74083502  0.09544254     0.37300
N691        N  0.10733418  0.74962403  0.08304695    -0.89300
H692        H  0.07082192  0.75157209  0.02335485     0.18400
H693        H  0.02974850  0.71303888  0.18716803     0.18400
N694        N  0.99349526  0.71586219  0.12751234    -0.88300
H695        H  0.10701510  0.73674923  0.05435375     0.35800
H696        H  0.11790571  0.74651581  0.11208647     0.40900
H697        H  0.98298132  0.71873834  0.09802887     0.40500
H698        H  0.99393808  0.72891111  0.15597742     0.35400
C699        C  0.45541796  0.77085554  0.93922704    -0.26400
C700        C  0.47525135  0.76383933  0.92217330    -0.14400
C701        C  0.47840791  0.76183792  0.87098189     0.36200
C702        C  0.45990643  0.76428534  0.83828136    -0.25800
C703        C  0.43916379  0.76989601  0.85556942    -0.15000
C704        C  0.43734192  0.77397256  0.90661305     0.37300
N705        N  0.41704830  0.78042624  0.92688358    -0.89300
H706        H  0.45312801  0.77272922  0.97848706     0.18400
H707        H  0.46141402  0.76145316  0.79910235     0.18400
N708        N  0.49998750  0.75675522  0.85261054    -0.88300
H709        H  0.40359070  0.76359860  0.94942519     0.35800
H710        H  0.40464780  0.78222064  0.89960518     0.40900
H711        H  0.51933280  0.77409783  0.86204557     0.40500
H712        H  0.49931174  0.75556230  0.81413279     0.35400
C713        C  0.18052745  0.95222690  0.43490237    -0.26400
C714        C  0.20672949  0.97437231  0.42005347    -0.14400
C715        C  0.21218101  0.98089539  0.36974153     0.36200
C716        C  0.19212659  0.96393906  0.33473873    -0.25800
C717        C  0.16687244  0.94049293  0.34937677    -0.15000
C718        C  0.16067011  0.93474722  0.39981303     0.37300
N719        N  0.13464997  0.91080588  0.41501493    -0.89300
H720        H  0.17635071  0.94753052  0.47380416     0.18400
H721        H  0.19673890  0.96849054  0.29603156     0.18400
N722        N  0.23823537  0.00440182  0.35418629    -0.88300
H723        H  0.13328325  0.90970108  0.45346129     0.35800
H724        H  0.13477047  0.89270380  0.40330751     0.40900
H725        H  0.23374843  0.01803006  0.33430853     0.40500
H726        H  0.24796935  0.99700046  0.33018473     0.35400
C727        C  0.06754632  0.80454781  0.06601475    -0.26400
C728        C  0.03823301  0.79123650  0.06826459    -0.14400
C729        C  0.02538434  0.79757793  0.10705902     0.36200
C730        C  0.04202611  0.81676523  0.14364087    -0.25800
C731        C  0.07136904  0.82921919  0.14264796    -0.15000
C732        C  0.08431313  0.82312202  0.10326755     0.37300
N733        N  0.11437574  0.83642588  0.10033028    -0.89300
H734        H  0.07733052  0.80003711  0.03543630     0.18400
H735        H  0.03195013  0.82146006  0.17353575     0.18400
N736        N  0.99543603  0.78420762  0.10972240    -0.88300
H737        H  0.12041939  0.83133400  0.06713266     0.35800
H738        H  0.12099549  0.82786488  0.12815216     0.40900
H739        H  0.98992364  0.79990744  0.10969373     0.40500
H740        H  0.98904893  0.77349506  0.14330516     0.35400
C741        C  0.08261458  0.82733508  0.39359649    -0.26400
C742        C  0.06959520  0.83541687  0.35772014    -0.14400
C743        C  0.04072655  0.82641800  0.36225716     0.36200
C744        C  0.02536616  0.80851627  0.40141010    -0.25800
C745        C  0.03824806  0.79959634  0.43608236    -0.15000
C746        C  0.06748924  0.80998634  0.43308055     0.37300
N747        N  0.08255386  0.80363705  0.46945140    -0.89300
H748        H  0.10490773  0.83475087  0.39116642     0.18400
H749        H  0.50295996  0.80047098  0.40377818     0.18400
N750        N  0.02676029  0.83413125  0.32583656    -0.88300
H751        H  0.08979722  0.79132200  0.45259397     0.35800
H752        H  0.06968981  0.79209350  0.49878171     0.40900
H753        H  0.03390367  0.85559957  0.33001931     0.40500
H754        H  0.50517151  0.82388540  0.33258090     0.35400
C755        C  0.33932035  0.56477021  0.59601393    -0.26400
C756        C  0.33005040  0.56352816  0.64446800    -0.14400
C757        C  0.30190870  0.54482162  0.65631333     0.36200
C758        C  0.28317853  0.52797361  0.61951677    -0.25800
C759        C  0.29174199  0.53061203  0.57011512    -0.15000
C760        C  0.32047599  0.54879090  0.55859692     0.37300
N761        N  0.33088544  0.05283034  0.50911321    -0.89300
H762        H  0.36103380  0.57928461  0.58673602     0.18400
H763        H  0.26147059  0.51376214  0.62922767     0.18400
N764        N  0.29214566  0.54345223  0.70559649    -0.88300
H765        H  0.31895458  0.05840961  0.48676249     0.35800
H766        H  0.32903380  0.03406260  0.49619000     0.40900
H767        H  0.28346803  0.52268171  0.71786562     0.40500
H768        H  0.27623507  0.54858867  0.70425431     0.35400
C769        C  0.45932870  0.67845067  0.63892214    -0.26400
C770        C  0.43083642  0.67059969  0.64079385    -0.14400
C771        C  0.42040978  0.68292854  0.60744832     0.36200
C772        C  0.43860350  0.70309349  0.57372407    -0.25800
C773        C  0.46733142  0.71194971  0.57333253    -0.15000
C774        C  0.47786247  0.69930317  0.60630818     0.37300
N775        N  0.50711356  0.70750095  0.60899742    -0.89300
H776        H  0.46758684  0.66918983  0.66451226     0.18400
H777        H  0.43027731  0.71224101  0.54803794     0.18400
N778        N  0.39129709  0.67487922  0.60729679    -0.88300
H779        H  0.51411218  0.71502015  0.64460137     0.35800
H780        H  0.01936935  0.72417869  0.58541479     0.40900
H781        H  0.38319319  0.66719967  0.57224585     0.40500
H782        H  0.38980210  0.69291006  0.61350670     0.35400
C783        C  0.46076416  0.67648408  0.85407988    -0.26400
C784        C  0.43262865  0.67000402  0.85178560    -0.14400
C785        C  0.42257445  0.68156936  0.88764404     0.36200
C786        C  0.44059733  0.69911058  0.92430923    -0.25800
C787        C  0.46902467  0.70680749  0.92499983    -0.15000
C788        C  0.47920369  0.69505332  0.88994382     0.37300
N789        N  0.00845604  0.70330026  0.88891966    -0.89300
H790        H  0.46862639  0.66771703  0.82680606     0.18400
H791        H  0.43259335  0.70782395  0.95144535     0.18400
N792        N  0.39415911  0.67579299  0.88824147    -0.88300
H793        H  0.01284302  0.69449341  0.85842903     0.35800
H794        H  0.01264117  0.69470483  0.91992663     0.40900
H795        H  0.38093764  0.65402107  0.88899522     0.40500
H796        H  0.39036677  0.68395485  0.85621732     0.35400
C797        C  0.25804039  0.58328280  0.60531770    -0.26400
C798        C  0.23504102  0.57032839  0.63752845    -0.14400
C799        C  0.21452490  0.54185364  0.62998155     0.32600
C800        C  0.21852271  0.52661570  0.59242153    -0.25800
C801        C  0.24224541  0.53929267  0.56184636    -0.15000
C802        C  0.26154142  0.56836842  0.56689091     0.37300
N803        N  0.28435622  0.58360151  0.53316889    -0.89300
H804        H  0.27334386  0.60540607  0.60957251     0.18400
H805        H  0.20350239  0.50443048  0.58791157     0.18400
N806        N  0.19007130  0.52830175  0.66086372    -0.88300
H807        H  0.30310760  0.59027947  0.55241786     0.35800
H808        H  0.28381758  0.57100665  0.50394961     0.40900
H809        H  0.19671760  0.52710456  0.69637998     0.40500
H810        H  0.17681696  0.50757436  0.64940603     0.35400
C811        C  0.23985846  0.66050153  0.90706211    -0.26400
C812        C  0.23022271  0.66343922  0.86080343    -0.14400
C813        C  0.22305239  0.68462256  0.85334639     0.36200
C814        C  0.22664473  0.70289549  0.89209275    -0.25800
C815        C  0.23709818  0.70050193  0.93784353    -0.15000
C816        C  0.24305182  0.67855198  0.94603608     0.37300
N817        N  0.25335908  0.67461400  0.99236913    -0.89300
H818        H  0.24540615  0.64429208  0.91268762     0.18400
H819        H  0.22202979  0.71972553  0.88601201     0.18400
N820        N  0.21303998  0.68891409  0.80696921    -0.88300
H821        H  0.23841341  0.65495889  0.00613480     0.35800
H822        H  0.25535147  0.68945454  0.01848032     0.40900
H823        H  0.21114043  0.67430661  0.78049647     0.40500
H824        H  0.22799548  0.70872526  0.79378211     0.35400
C825        C  0.23473952  0.69608883  0.66644645    -0.26400
C826        C  0.23116296  0.67012578  0.65135936    -0.14400
C827        C  0.22927995  0.66349817  0.60094947     0.36200
C828        C  0.23215661  0.68368045  0.56611288    -0.25800
C829        C  0.23686300  0.71018937  0.58106072    -0.15000
C830        C  0.23699811  0.71605083  0.63192920     0.37300
N831        N  0.23886755  0.74160388  0.64984910    -0.89300
H832        H  0.23590117  0.70094148  0.70532483     0.18400
H833        H  0.23186160  0.67919978  0.52715263     0.18400
N834        N  0.22518074  0.63662075  0.58548428    -0.88300
H835        H  0.25766059  0.75267281  0.66941269     0.35800
H836        H  0.23926556  0.75449935  0.62119386     0.40900
H837        H  0.24287984  0.63549720  0.59611692     0.40500
H838        H  0.22410318  0.63503691  0.54705503     0.35400
C839        C  0.27754625  0.97702931  0.39273152    -0.26400
C840        C  0.25533198  0.96533992  0.42657061    -0.14400
C841        C  0.23589675  0.93629232  0.42514755     0.36200
C842        C  0.23792540  0.91979914  0.38769721    -0.25800
C843        C  0.25961946  0.93156230  0.35277445    -0.15000
C844        C  0.27985690  0.96044397  0.35556556     0.37300
N845        N  0.30206749  0.97299134  0.31986510    -0.89300
H846        H  0.29248252  0.49937255  0.39428182     0.18400
H847        H  0.22269144  0.89752813  0.38614832     0.18400
N848        N  0.21422621  0.92372444  0.46177318    -0.88300
H849        H  0.31519803  0.49436222  0.32742026     0.35800
H850        H  0.29288407  0.97183237  0.28554304     0.40900
H851        H  0.22395646  0.92577808  0.49584501     0.40500
H852        H  0.20148245  0.90217054  0.45527834     0.35400
C853        C  0.24041962  0.81964405  0.10819599    -0.26400
C854        C  0.26102572  0.82803835  0.14492782    -0.14400
C855        C  0.28036794  0.81823703  0.14354108     0.36200
C856        C  0.27774606  0.79912040  0.10661014    -0.25800
C857        C  0.25645953  0.78996713  0.07100325    -0.15000
C858        C  0.23826085  0.80124681  0.07066502     0.37300
N859        N  0.21771513  0.79488027  0.03266755    -0.89300
H860        H  0.22595632  0.82766938  0.10838636     0.18400
H861        H  0.29161582  0.79039037  0.10670809     0.18400
N862        N  0.30149405  0.82638140  0.18106201    -0.88300
H863        H  0.19784143  0.78341513  0.04865625     0.35800
H864        H  0.21918205  0.78257211  0.00483292     0.40900
H865        H  0.31606406  0.84766776  0.17578527     0.40500
H866        H  0.31257613  0.81561422  0.17663097     0.35400
C867        C  0.24726839  0.81084685  0.44004797    -0.26400
C868        C  0.25998412  0.79443903  0.43301817    -0.14400
C869        C  0.27510149  0.79733070  0.38941756     0.36200
C870        C  0.27629346  0.81599934  0.35263830    -0.25800
C871        C  0.26229008  0.83129035  0.35875227    -0.15000
C872        C  0.24807035  0.82903610  0.40328711     0.37300
N873        N  0.23455635  0.84519351  0.41232581    -0.89300
H874        H  0.23587235  0.80879984  0.47379543     0.18400
H875        H  0.28729764  0.81790238  0.31846738     0.18400
N876        N  0.28808991  0.78047093  0.38190707    -0.88300
H877        H  0.21861921  0.83967982  0.38634882     0.35800
H878        H  0.24936077  0.86650725  0.40797433     0.40900
H879        H  0.30413814  0.78669853  0.40792446     0.40500
H880        H  0.29765147  0.78454100  0.34727168     0.35400
C881        C  0.32608616  0.53811147  0.85753968    -0.26400
C882        C  0.33389586  0.56669335  0.85578362    -0.14400
C883        C  0.32330083  0.57759475  0.89162830     0.36200
C884        C  0.30420473  0.55970136  0.92675003    -0.25800
C885        C  0.29454036  0.53078569  0.92592734    -0.15000
C886        C  0.30622622  0.51999923  0.89209306     0.37300
N887        N  0.29699850  0.49054047  0.89121942    -0.89300
H888        H  0.33422914  0.52951707  0.83045896     0.18400
H889        H  0.29589832  0.56827860  0.95357302     0.18400
N890        N  0.33162458  0.60683975  0.89232611    -0.88300
H891        H  0.31452805  0.48813910  0.89649336     0.35800
H892        H  0.28882365  0.48281928  0.85622494     0.40900
H893        H  0.34017301  0.61484695  0.92701009     0.40500
H894        H  0.31362752  0.60855435  0.88811582     0.35400
C895        C  0.22949170  0.56623119  0.89744436    -0.26400
C896        C  0.23368779  0.56273387  0.84770204    -0.14400
C897        C  0.24025752  0.54204678  0.83353748     0.36200
C898        C  0.24297709  0.52532902  0.86974655    -0.25800
C899        C  0.23994674  0.52948025  0.91985697    -0.15000
C900        C  0.23291064  0.55000275  0.93393101     0.37300
N901        N  0.23006704  0.55480246  0.98513393    -0.89300
H902        H  0.22456130  0.58235909  0.90787704     0.18400
H903        H  0.24798314  0.50930406  0.85901012     0.18400
N904        N  0.24424905  0.53821798  0.78248832    -0.88300
H905        H  0.22477992  0.57056095  0.98909098     0.35800
H906        H  0.24969863  0.56233460  0.00172387     0.40900
H907        H  0.22516685  0.53163384  0.76454242     0.40500
H908        H  0.24874607  0.52191448  0.77847663     0.35400
C909        C  0.28034592  0.95553180  0.13414957    -0.26400
C910        C  0.25915696  0.92729529  0.13855132    -0.14400
C911        C  0.23743580  0.91550199  0.10318993     0.36200
C912        C  0.23693892  0.93246997  0.06509326    -0.25800
C913        C  0.25703860  0.96113520  0.06255428    -0.15000
C914        C  0.27927786  0.97275854  0.09687376     0.37300
N915        N  0.30010462  0.50210537  0.09469501    -0.89300
H916        H  0.29712282  0.96447067  0.16109968     0.18400
H917        H  0.22024673  0.92354256  0.03798731     0.18400
N918        N  0.21597510  0.88638818  0.10603477    -0.88300
H919        H  0.31507461  0.50722397  0.12247730     0.35800
H920        H  0.29006014  0.51365789  0.10183224     0.40900
H921        H  0.22558090  0.87430609  0.10013010     0.40500
H922        H  0.20124739  0.88129343  0.07781542     0.35400
C923        C  0.21339494  0.97319131  0.11347330    -0.26400
C924        C  0.20582829  0.96547738  0.06412587    -0.14400
C925        C  0.17887067  0.94249331  0.05297289     0.36200
C926        C  0.16045479  0.92783037  0.09168826    -0.25800
C927        C  0.16880436  0.93467051  0.14083988    -0.15000
C928        C  0.19548528  0.95745158  0.15199917     0.37300
N929        N  0.20436901  0.96431351  0.20234247    -0.89300
H930        H  0.23400718  0.49074305  0.12189120     0.18400
H931        H  0.13999236  0.90999418  0.08337651     0.18400
N932        N  0.16988166  0.93260161  0.00353530    -0.88300
H933        H  0.22439895  0.48207621  0.20419708     0.35800
H934        H  0.20614380  0.94765169  0.21711655     0.40900
H935        H  0.18547468  0.94403014  0.97766846     0.40500
H936        H  0.16616655  0.91197256  0.00157006     0.35400
C937        C  0.75284481  0.47902055  0.02649001     0.02300
C938        C  0.72769713  0.48020103  0.02610158     0.02200
C939        C  0.72406734  0.99686449  0.99123568    -0.18300
C940        C  0.74516387  0.01276377  0.95707334     0.02300
C941        C  0.77068744  0.01219137  0.95825484     0.02200
C942        C  0.77407467  0.49504433  0.99257803    -0.18300
H943        H  0.79352872  0.49453490  0.99347822     0.04300
H944        H  0.70464005  0.99744142  0.99078009     0.04300
O945        O  0.78404491  0.36649496  0.20111750    -0.71800
O946        O  0.78339155  0.41664271  0.29705247    -0.72000
O947        O  0.78458694  0.36818970  0.30005232    -0.71900
O948        O  0.78298925  0.41480170  0.19801769    -0.71900
O949        O  0.73742898  0.39112991  0.19871516    -0.71900
O950        O  0.73897619  0.34484480  0.30073718    -0.71900
O951        O  0.73783320  0.39281548  0.29776243    -0.71800
O952        O  0.73847263  0.34322166  0.20155241    -0.72000
V953        V  0.78289619  0.39109869  0.24912150     1.35200
V954        V  0.73909117  0.36847038  0.24972149     1.35200
C955        C  0.76130715  0.34657988  0.18447396     0.77400
C956        C  0.76042284  0.41308344  0.31402547     0.77500
C957        C  0.76198938  0.34882711  0.31810458     0.77400
C958        C  0.75990177  0.41044713  0.18024897     0.77300
O959        O  0.75568059  0.10778665  0.69529759    -0.71800
O960        O  0.75353623  0.14888782  0.80539432    -0.72000
O961        O  0.75532081  0.10140676  0.79317520    -0.71900
O962        O  0.75391484  0.15522962  0.70751870    -0.71900
O963        O  0.70859816  0.12902404  0.70078696    -0.71900
O964        O  0.70977530  0.07979781  0.79807584    -0.71900
O965        O  0.70802838  0.12781108  0.79985825    -0.71800
O966        O  0.71041414  0.08111270  0.69882992    -0.72000
V967        V  0.75375273  0.12787597  0.75034540     1.35200
V968        V  0.70999581  0.10484328  0.74942978     1.35200
C969        C  0.73350645  0.08701262  0.67891455     0.77400
C970        C  0.73049057  0.14591926  0.82036460     0.77500
C971        C  0.73282110  0.08199626  0.81131639     0.77400
C972        C  0.73112104  0.15074513  0.68837678     0.77300
O973        O  0.89169775  0.15157112  0.69532890    -0.71800
O974        O  0.84773672  0.10413077  0.79899038    -0.72000
O975        O  0.89466425  0.15371432  0.79421277    -0.71900
O976        O  0.84449073  0.10144354  0.70055350    -0.71900
O977        O  0.87070824  0.08219169  0.69558856    -0.71900
O978        O  0.91790663  0.13132581  0.79625563    -0.71900
O979        O  0.87035728  0.08111354  0.79524464    -0.71800
O980        O  0.91808975  0.13250984  0.69720447    -0.72000
V981        V  0.87014485  0.12730318  0.74712553     1.35200
V982        V  0.89380173  0.10713320  0.74604560     1.35200
C983        C  0.91270197  0.15058436  0.67909149     0.77400
C984        C  0.85147855  0.08464416  0.81501141     0.77500
C985        C  0.91430170  0.15092690  0.81245163     0.77400
C986        C  0.84927972  0.08319357  0.68167670     0.77300
O987        O  0.62885019  0.41777013  0.19286571    -0.71800
O988        O  0.58237400  0.37137023  0.29663035    -0.72000
O989        O  0.62912011  0.42202154  0.29179482    -0.71900
O990        O  0.58214192  0.36715434  0.19779784    -0.71900
O991        O  0.60901260  0.34862349  0.20055343    -0.71900
O992        O  0.65329801  0.40065350  0.29938442    -0.71900
O993        O  0.60685806  0.35025925  0.29980856    -0.71800
O994        O  0.65550782  0.39914492  0.20115407    -0.72000
V995        V  0.60608316  0.39419817  0.24487591     1.35200
V996        V  0.63059864  0.37499340  0.25010211     1.35200
C997        C  0.65028170  0.41652689  0.17997715     0.77400
C998        C  0.58676602  0.35294611  0.31603656     0.77500
C999        C  0.64896054  0.42031107  0.31190725     0.77400
C1000       C  0.58815204  0.34909303  0.18206350     0.77300
C1001       C  0.98807943  0.22923918  0.95968361     0.02300
C1002       C  0.99072767  0.25637900  0.95871255     0.02200
C1003       C  0.00708013  0.27620366  0.99471069    -0.18300
C1004       C  0.52125680  0.26979604  0.03082508     0.02300
C1005       C  0.51896109  0.24298273  0.03134084     0.02200
C1006       C  0.50222555  0.22289195  0.99614843    -0.18300
H1007       H  0.49969018  0.20200916  0.99802741     0.04300
H1008       H  0.00887658  0.29681521  0.99452690     0.04300
C1009       C  0.98565252  0.23475118  0.53875290     0.02300
C1010       C  0.98896730  0.26200783  0.54231361     0.02200
C1011       C  0.00592678  0.28269576  0.50804561    -0.18300
C1012       C  0.52007694  0.27688970  0.47094036     0.02300
C1013       C  0.51643900  0.24945727  0.46688425     0.02200
C1014       C  0.99897235  0.22868720  0.50059802    -0.18300
H1015       H  0.49563541  0.20753384  0.49716014     0.04300
H1016       H  0.00840333  0.30354809  0.51063772     0.04300
O1017       O  0.65386675  0.25380740  0.21232297    -0.71800
O1018       O  0.59926806  0.25551488  0.29559817    -0.72000
O1019       O  0.64767470  0.25578232  0.31004366    -0.71900
O1020       O  0.60548533  0.25364115  0.19786576    -0.71900
O1021       O  0.57897918  0.20843085  0.20708280    -0.71900
O1022       O  0.62896634  0.21030348  0.30621517    -0.71900
O1023       O  0.58012682  0.21033946  0.30646080    -0.71800
O1024       O  0.62786058  0.20831084  0.20717288    -0.72000
V1025       V  0.62616175  0.25388634  0.25400917     1.35200
V1026       V  0.60433281  0.21009304  0.25668225     1.35200
C1027       C  0.64961018  0.23074689  0.19430455     0.77400
C1028       C  0.58112185  0.23329966  0.31676890     0.77500
C1029       C  0.64616932  0.23344022  0.32614063     0.77400
C1030       C  0.58457243  0.23074046  0.18417671     0.77300
O1031       O  0.91929704  0.29237491  0.70632157    -0.71800
O1032       O  0.86780536  0.28648310  0.80580357    -0.72000
O1033       O  0.91906271  0.29118541  0.80548408    -0.71900
O1034       O  0.86819347  0.28760767  0.70637276    -0.71900
O1035       O  0.84848729  0.24211248  0.70610352    -0.71900
O1036       O  0.90027917  0.24568249  0.80214613    -0.71900
O1037       O  0.84925036  0.24101781  0.80542205    -0.71800
O1038       O  0.89926934  0.24673775  0.70382269    -0.72000
V1039       V  0.89319110  0.28855834  0.75602818     1.35200
V1040       V  0.87462888  0.24479770  0.75447413     1.35200
C1041       C  0.91791768  0.27047961  0.68823198     0.77400
C1042       C  0.85009189  0.26274582  0.82318878     0.77500
C1043       C  0.91857238  0.26898578  0.81985227     0.77400
C1044       C  0.84994940  0.26417666  0.68864911     0.77300
C1045       C  0.72767722  0.23926577  0.04404194     0.02300
C1046       C  0.75175049  0.26632337  0.03854699     0.02200
C1047       C  0.77179656  0.27089188  0.00232688    -0.18300
C1048       C  0.76776806  0.24932472  0.96991449     0.02300
C1049       C  0.74346577  0.22266835  0.97454528     0.02200
C1050       C  0.72412524  0.21762331  0.01217457    -0.18300
H1051       H  0.70628049  0.19667271  0.01648335     0.04300
H1052       H  0.79045318  0.29141120  0.99898899     0.04300
C1053       C  0.72827441  0.24765794  0.47192816     0.02300
C1054       C  0.75471952  0.27240486  0.46966573     0.02200
C1055       C  0.77577689  0.27642603  0.50339284    -0.18300
C1056       C  0.77065079  0.25619062  0.53980472     0.02300
C1057       C  0.74369790  0.23186207  0.54278305     0.02200
C1058       C  0.72297864  0.22770226  0.50847921    -0.18300
H1059       H  0.70255520  0.20881657  0.51030641     0.04300
H1060       H  0.79618620  0.29528145  0.50117432     0.04300
C1061       C  0.72890181  0.48894029  0.45745671     0.02300
C1062       C  0.75184399  0.48418582  0.46135104     0.02200
C1063       C  0.77189727  0.49772481  0.49846455    -0.18300
C1064       C  0.76995594  0.01651343  0.53116904     0.02300
C1065       C  0.74673747  0.02108062  0.52706026     0.02200
C1066       C  0.72643783  0.50702740  0.49059063    -0.18300
H1067       H  0.70861498  0.51034435  0.48778160     0.04300
H1068       H  0.78870696  0.49299421  0.50248389     0.04300
C1069       C  0.80543061  0.24091030  0.93957924    -0.26400
C1070       C  0.78966883  0.25436342  0.93276378    -0.14400
C1071       C  0.79458959  0.27137759  0.89050151     0.36200
C1072       C  0.81522621  0.27449515  0.85655243    -0.25800
C1073       C  0.83048073  0.26040424  0.86272222    -0.15000
C1074       C  0.82578458  0.24369517  0.90545315     0.37300
N1075       N  0.84136544  0.22961685  0.91615709    -0.89300
H1076       H  0.80194156  0.22810911  0.97212323     0.18400
H1077       H  0.81864153  0.28726800  0.82397342     0.18400
N1078       N  0.77873459  0.28517832  0.88004883    -0.88300
H1079       H  0.85129360  0.23708813  0.95014511     0.35800
H1080       H  0.85747353  0.23474812  0.89092539     0.40900
H1081       H  0.76353700  0.28092002  0.90683171     0.40500
H1082       H  0.76783528  0.27678621  0.84713120     0.35400
C1083       C  0.82430645  0.28424767  0.64369295    -0.26400
C1084       C  0.83094279  0.26266753  0.64831035    -0.14400
C1085       C  0.81958368  0.24034949  0.61357862     0.36200
C1086       C  0.80144103  0.23969343  0.57681245    -0.25800
C1087       C  0.79346395  0.26028718  0.57428114    -0.15000
C1088       C  0.80556838  0.28312040  0.60726962     0.37300
N1089       N  0.79793954  0.30454928  0.60523810    -0.89300
H1090       H  0.83297985  0.30165664  0.66946406     0.18400
H1091       H  0.79272675  0.22237820  0.55083908     0.18400
N1092       N  0.82619696  0.21816559  0.61411185    -0.88300
H1093       H  0.78943538  0.30517025  0.63934460     0.35800
H1094       H  0.81623221  0.32387872  0.59995020     0.40900
H1095       H  0.81845203  0.20655384  0.64655603     0.40500
H1096       H  0.84799313  0.22700790  0.61280046     0.35400
C1097       C  0.65971818  0.22242351  0.10957841    -0.26400
C1098       C  0.66920662  0.23020716  0.15804544    -0.14400
C1099       C  0.69738757  0.23861848  0.16984713     0.36200
C1100       C  0.71533462  0.23934653  0.13252545    -0.25800
C1101       C  0.70642011  0.23343983  0.08321442    -0.15000
C1102       C  0.67797607  0.22434321  0.07199386     0.37300
N1103       N  0.66725171  0.21829907  0.02266005    -0.89300
H1104       H  0.63811884  0.21582454  0.10041826     0.18400
H1105       H  0.73680999  0.24554931  0.14189007     0.18400
N1106       N  0.70849596  0.24627080  0.21896941    -0.88300
H1107       H  0.66788773  0.20072162  0.00968746     0.35800
H1108       H  0.67974260  0.23551569  0.00013676     0.40900
H1109       H  0.69327206  0.24423603  0.24412959     0.40500
H1110       H  0.72393344  0.26754235  0.21842684     0.35400
C1111       C  0.68671117  0.25080460  0.44627490    -0.26400
C1112       C  0.70602023  0.24193558  0.43555479    -0.14400
C1113       C  0.70410752  0.22831763  0.39027776     0.36200
C1114       C  0.68332102  0.22461162  0.35638293    -0.25800
C1115       C  0.66483376  0.23465598  0.36609585    -0.15000
C1116       C  0.66608471  0.24736056  0.41217047     0.37300
N1117       N  0.64683995  0.25680166  0.42581931    -0.89300
H1118       H  0.68793437  0.26085090  0.48129978     0.18400
H1119       H  0.68223649  0.21463407  0.32134701     0.18400
N1120       N  0.72284010  0.21814922  0.37727875    -0.88300
H1121       H  0.63589198  0.24539684  0.45698786     0.35800
H1122       H  0.63167945  0.25218413  0.39874461     0.40900
H1123       H  0.73723390  0.22159340  0.40525150     0.40500
H1124       H  0.73446689  0.22965829  0.34670096     0.35400
C1125       C  0.52801969  0.24783596  0.37824150    -0.26400
C1126       C  0.53079892  0.24217832  0.42782043    -0.14400
C1127       C  0.54829994  0.23094951  0.43984512     0.36200
C1128       C  0.56338788  0.22670526  0.40227706    -0.25800
C1129       C  0.56212666  0.23444695  0.35355055    -0.15000
C1130       C  0.54411325  0.24482828  0.34117035     0.37300
N1131       N  0.54246811  0.25248687  0.29111239    -0.89300
H1132       H  0.51380332  0.25538069  0.36863892     0.18400
H1133       H  0.57728671  0.21866587  0.41138970     0.18400
N1134       N  0.55138441  0.22474255  0.49020486    -0.88300
H1135       H  0.52854139  0.26019753  0.28828588     0.35800
H1136       H  0.53405066  0.23414357  0.26994234     0.40900
H1137       H  0.56088954  0.24368385  0.50973825     0.40500
H1138       H  0.56494642  0.21657908  0.49260350     0.35400
C1139       C  0.95135182  0.27227144  0.56524180    -0.26400
C1140       C  0.97382663  0.26873722  0.58041550    -0.14400
C1141       C  0.97931328  0.26867933  0.63143153     0.36200
C1142       C  0.96107995  0.27020585  0.66566760    -0.25800
C1143       C  0.93784266  0.27228832  0.65040662    -0.15000
C1144       C  0.93323451  0.27403289  0.59955864     0.37300
N1145       N  0.90991453  0.27639926  0.58132496    -0.89300
H1146       H  0.94706822  0.27233972  0.52625396     0.18400
H1147       H  0.96482975  0.26926359  0.70466670     0.18400
N1148       N  0.50310752  0.26726707  0.64984701    -0.88300
H1149       H  0.91809016  0.29550936  0.56241752     0.35800
H1150       H  0.89769383  0.27728880  0.60989181     0.40900
H1151       H  0.51582689  0.26721444  0.62139832     0.40500
H1152       H  0.49557226  0.24834093  0.66911530     0.35400
C1153       C  0.56178434  0.24303610  0.05910209    -0.26400
C1154       C  0.53395985  0.23577688  0.06883499    -0.14400
C1155       C  0.52206729  0.22429130  0.11529206     0.36200
C1156       C  0.53874167  0.22133496  0.15131345    -0.25800
C1157       C  0.56714328  0.23039919  0.14262427    -0.15000
C1158       C  0.57867922  0.24083492  0.09544198     0.37300
N1159       N  0.60733286  0.24962194  0.08304502    -0.89300
H1160       H  0.57082065  0.25157089  0.02335373     0.18400
H1161       H  0.52974983  0.21304466  0.18717142     0.18400
N1162       N  0.49349737  0.21587092  0.12751808    -0.88300
H1163       H  0.60701234  0.23674604  0.05435249     0.35800
H1164       H  0.61790437  0.24651356  0.11208431     0.40900
H1165       H  0.48298345  0.21874750  0.09803499     0.40500
H1166       H  0.49394274  0.22892163  0.15598215     0.35400
C1167       C  0.95541798  0.27085755  0.93922844    -0.26400
C1168       C  0.97525240  0.26384274  0.92217468    -0.14400
C1169       C  0.97840978  0.26184257  0.87098323     0.36200
C1170       C  0.95990804  0.26428947  0.83828252    -0.25800
C1171       C  0.93916435  0.26989868  0.85557040    -0.15000
C1172       C  0.93734175  0.27397426  0.90661424     0.37300
N1173       N  0.91704718  0.28042664  0.92688466    -0.89300
H1174       H  0.95312743  0.27273037  0.97848854     0.18400
H1175       H  0.96141626  0.26145803  0.79910343     0.18400
N1176       N  0.99999053  0.25676159  0.85261196    -0.88300
H1177       H  0.90358950  0.26359829  0.94942495     0.35800
H1178       H  0.90464689  0.28222119  0.89960601     0.40900
H1179       H  0.01933527  0.27410461  0.86204822     0.40500
H1180       H  0.99931535  0.25556942  0.81413414     0.35400
C1181       C  0.68052357  0.45222701  0.43490452    -0.26400
C1182       C  0.70672590  0.47437195  0.42005585    -0.14400
C1183       C  0.71217781  0.48089545  0.36974415     0.36200
C1184       C  0.69212322  0.46393998  0.33474114    -0.25800
C1185       C  0.66686886  0.44049414  0.34937893    -0.15000
C1186       C  0.66066627  0.43474786  0.39981493     0.37300
N1187       N  0.63464614  0.41080625  0.41501623    -0.89300
H1188       H  0.67634672  0.44753030  0.47380620     0.18400
H1189       H  0.69673571  0.46849150  0.29603391     0.18400
N1190       N  0.73823285  0.50440111  0.35418934    -0.88300
H1191       H  0.63327935  0.40970094  0.45346254     0.35800
H1192       H  0.63476676  0.39270433  0.40330799     0.40900
H1193       H  0.73374695  0.51803012  0.33431177     0.40500
H1194       H  0.74796617  0.49699906  0.33018764     0.35400
C1195       C  0.56754734  0.30454914  0.06601671    -0.26400
C1196       C  0.53823408  0.29123955  0.06826497    -0.14400
C1197       C  0.52538553  0.29758238  0.10705757     0.36200
C1198       C  0.54202730  0.31676903  0.14363977    -0.25800
C1199       C  0.57137000  0.32922117  0.14264870    -0.15000
C1200       C  0.58431414  0.32312302  0.10326973     0.37300
N1201       N  0.61437672  0.33642572  0.10033397    -0.89300
H1202       H  0.57733143  0.30003744  0.03543932     0.18400
H1203       H  0.53195142  0.32146495  0.17353340     0.18400
N1204       N  0.49543731  0.28421415  0.10971870    -0.88300
H1205       H  0.62042049  0.33133321  0.06713703     0.35800
H1206       H  0.62099550  0.32786443  0.12815681     0.40900
H1207       H  0.48992655  0.29991517  0.10968832     0.40500
H1208       H  0.48904878  0.27350190  0.14330154     0.35400
C1209       C  0.58261344  0.32733629  0.39359693    -0.26400
C1210       C  0.56959406  0.33541836  0.35772098    -0.14400
C1211       C  0.54072547  0.32641967  0.36225825     0.36200
C1212       C  0.52536503  0.30851756  0.40141065    -0.25800
C1213       C  0.53824687  0.29959713  0.43608210    -0.15000
C1214       C  0.56748802  0.30998711  0.43308042     0.37300
N1215       N  0.58255245  0.30363713  0.46945061    -0.89300
H1216       H  0.60490658  0.33475197  0.39116678     0.18400
H1217       H  0.00295943  0.30047232  0.40377920     0.18400
N1218       N  0.52675928  0.33413343  0.32583833    -0.88300
H1219       H  0.58979576  0.29132229  0.45259229     0.35800
H1220       H  0.56968826  0.29209311  0.49878047     0.40900
H1221       H  0.53390276  0.35560173  0.33002200     0.40500
H1222       H  0.00517078  0.32388617  0.33258140     0.35400
C1223       C  0.83932353  0.06477716  0.59601259    -0.26400
C1224       C  0.83005308  0.06353220  0.64446722    -0.14400
C1225       C  0.80191164  0.04482376  0.65631114     0.36200
C1226       C  0.78318215  0.02797685  0.61951278    -0.25800
C1227       C  0.79174614  0.03061766  0.57011111    -0.15000
C1228       C  0.82047994  0.04879840  0.55859417     0.37300
N1229       N  0.83088179  0.55281965  0.50911515    -0.89300
H1230       H  0.86103678  0.07929303  0.58673569     0.18400
H1231       H  0.76147434  0.01376401  0.62922254     0.18400
N1232       N  0.79214810  0.04345130  0.70559481    -0.88300
H1233       H  0.81895161  0.55839902  0.48676242     0.35800
H1234       H  0.82902906  0.53405096  0.49619529     0.40900
H1235       H  0.78347147  0.02268029  0.71786064     0.40500
H1236       H  0.77623661  0.04858652  0.70425470     0.35400
C1237       C  0.95933018  0.17845132  0.63891930    -0.26400
C1238       C  0.93083772  0.17059956  0.64079089    -0.14400
C1239       C  0.92041020  0.18292698  0.60744413     0.36200
C1240       C  0.93860351  0.20309243  0.57372035    -0.25800
C1241       C  0.96733164  0.21194984  0.57332968    -0.15000
C1242       C  0.97786342  0.19930388  0.60630497     0.37300
N1243       N  0.00711470  0.20750230  0.60899345    -0.89300
H1244       H  0.96758883  0.16919119  0.66450987     0.18400
H1245       H  0.93027687  0.21223939  0.54803396     0.18400
N1246       N  0.89129702  0.17487578  0.60729116    -0.88300
H1247       H  0.01411360  0.21502201  0.64459699     0.35800
H1248       H  0.51936877  0.22417773  0.58540744     0.40900
H1249       H  0.88319382  0.16719576  0.57224000     0.40500
H1250       H  0.88980052  0.19290580  0.61350034     0.35400
C1251       C  0.96076800  0.17649052  0.85407554    -0.26400
C1252       C  0.93263191  0.17000864  0.85178326    -0.14400
C1253       C  0.92257692  0.18157245  0.88764310     0.36200
C1254       C  0.94059940  0.19911339  0.92430878    -0.25800
C1255       C  0.96902703  0.20681162  0.92499821    -0.15000
C1256       C  0.97920713  0.19505971  0.88993992     0.37300
N1257       N  0.50845940  0.20330888  0.88891643    -0.89300
H1258       H  0.96863086  0.16772500  0.82679997     0.18400
H1259       H  0.93259484  0.20782549  0.95144626     0.18400
N1260       N  0.89416114  0.17579471  0.88824145    -0.88300
H1261       H  0.51284701  0.19450286  0.85842536     0.35800
H1262       H  0.51264583  0.19471425  0.91992309     0.40900
H1263       H  0.88094053  0.15402264  0.88899375     0.40500
H1264       H  0.89036825  0.18395683  0.85621819     0.35400
C1265       C  0.75804306  0.08328518  0.60531545    -0.26400
C1266       C  0.73504377  0.07032998  0.63752614    -0.14400
C1267       C  0.71452756  0.04185548  0.62997747     0.32600
C1268       C  0.71852552  0.02661832  0.59241622    -0.25800
C1269       C  0.74224836  0.03929593  0.56184142    -0.15000
C1270       C  0.76154410  0.06837170  0.56688722     0.37300
N1271       N  0.78435848  0.08360569  0.53316488    -0.89300
H1272       H  0.77334640  0.10540842  0.60957139     0.18400
H1273       H  0.70350530  0.00443315  0.58790525     0.18400
N1274       N  0.69007389  0.02830305  0.66085938    -0.88300
H1275       H  0.80311018  0.09028390  0.55241315     0.35800
H1276       H  0.78381980  0.07101145  0.50394470     0.40900
H1277       H  0.69672007  0.02710493  0.69637517     0.40500
H1278       H  0.67681939  0.00757592  0.64940017     0.35400
C1279       C  0.73985719  0.16050088  0.90705930    -0.26400
C1280       C  0.73022361  0.16344016  0.86079960    -0.14400
C1281       C  0.72305446  0.18462432  0.85334212     0.36200
C1282       C  0.72664611  0.20289664  0.89208910    -0.25800
C1283       C  0.73709769  0.20050166  0.93784091    -0.15000
C1284       C  0.74304987  0.17855074  0.94603382     0.37300
N1285       N  0.75335529  0.17461133  0.99236772    -0.89300
H1286       H  0.74540379  0.14429067  0.91268515     0.18400
H1287       H  0.72203220  0.21972738  0.88600811     0.18400
N1288       N  0.71304406  0.18891730  0.80696398    -0.88300
H1289       H  0.73840843  0.15495630  0.00613208     0.35800
H1290       H  0.75534798  0.18945184  0.01847911     0.40900
H1291       H  0.71114488  0.17431017  0.78049093     0.40500
H1292       H  0.72800058  0.20872860  0.79377867     0.35400
C1293       C  0.73474633  0.19609075  0.66644385    -0.26400
C1294       C  0.73116898  0.17012754  0.65135608    -0.14400
C1295       C  0.72928453  0.16349954  0.60094621     0.36200
C1296       C  0.73215940  0.18368130  0.56611017    -0.25800
C1297       C  0.73686580  0.21019011  0.58105866    -0.15000
C1298       C  0.73700345  0.21605232  0.63192730     0.37300
N1299       N  0.73887409  0.24160575  0.64984803    -0.89300
H1300       H  0.73590937  0.20094370  0.70532231     0.18400
H1301       H  0.73186304  0.17920040  0.52714973     0.18400
N1302       N  0.72518579  0.13662238  0.58548054    -0.88300
H1303       H  0.75766808  0.25267466  0.66940931     0.35800
H1304       H  0.73927106  0.25450099  0.62119356     0.40900
H1305       H  0.74288560  0.13549965  0.59611113     0.40500
H1306       H  0.72410714  0.13503829  0.54705122     0.35400
C1307       C  0.77754125  0.47702575  0.39273432    -0.26400
C1308       C  0.75532632  0.46533618  0.42657214    -0.14400
C1309       C  0.73589045  0.43628879  0.42514700     0.36200
C1310       C  0.73791958  0.41979595  0.38769655    -0.25800
C1311       C  0.75961450  0.43155926  0.35277531    -0.15000
C1312       C  0.77985220  0.46044080  0.35556794     0.37300
N1313       N  0.80206346  0.47298847  0.31986871    -0.89300
H1314       H  0.79248617  0.99937638  0.39427615     0.18400
H1315       H  0.72268529  0.39752507  0.38614644     0.18400
N1316       N  0.71421882  0.42372072  0.46177070    -0.88300
H1317       H  0.81520031  0.99436575  0.32741278     0.35800
H1318       H  0.79288067  0.47183020  0.28554620     0.40900
H1319       H  0.72394798  0.42577336  0.49584333     0.40500
H1320       H  0.70147467  0.40216703  0.45527438     0.35400
C1321       C  0.74041410  0.31963959  0.10819807    -0.26400
C1322       C  0.76102256  0.32803699  0.14492629    -0.14400
C1323       C  0.78036742  0.31823898  0.14353523     0.36200
C1324       C  0.77774524  0.29912180  0.10660509    -0.25800
C1325       C  0.75645642  0.28996540  0.07100212    -0.15000
C1326       C  0.73825543  0.30124238  0.07066710     0.37300
N1327       N  0.71770759  0.29487337  0.03267260    -0.89300
H1328       H  0.72594901  0.32766273  0.10839091     0.18400
H1329       H  0.79161711  0.29039423  0.10670015     0.18400
N1330       N  0.80149708  0.32638768  0.18105064    -0.88300
H1331       H  0.69783480  0.28340703  0.04866391     0.35800
H1332       H  0.71917472  0.28256565  0.00483724     0.40900
H1333       H  0.81606463  0.34767431  0.17576945     0.40500
H1334       H  0.81258114  0.31562265  0.17661714     0.35400
C1335       C  0.74726706  0.31084626  0.44004746    -0.26400
C1336       C  0.75998185  0.29443767  0.43301621    -0.14400
C1337       C  0.77509767  0.29732811  0.38941415     0.36200
C1338       C  0.77628908  0.31599640  0.35263492    -0.25800
C1339       C  0.76228707  0.33128856  0.35875080    -0.15000
C1340       C  0.74806913  0.32903575  0.40328707     0.37300
N1341       N  0.73455721  0.34519498  0.41232763    -0.89300
H1342       H  0.73587210  0.30879998  0.47379597     0.18400
H1343       H  0.78729188  0.31789842  0.31846274     0.18400
N1344       N  0.78808493  0.28046738  0.38190229    -0.88300
H1345       H  0.71862002  0.33968266  0.38635185     0.35800
H1346       H  0.74936294  0.36650856  0.40797588     0.40900
H1347       H  0.80413406  0.28669500  0.40791756     0.40500
H1348       H  0.79764513  0.28453645  0.34726559     0.35400
C1349       C  0.82608666  0.03811580  0.85753967    -0.26400
C1350       C  0.83389733  0.06669793  0.85578562    -0.14400
C1351       C  0.82330279  0.07759917  0.89163154     0.36200
C1352       C  0.80420647  0.05970535  0.92675288    -0.25800
C1353       C  0.79454170  0.03078956  0.92592883    -0.15000
C1354       C  0.80622669  0.02000325  0.89209253     0.37300
N1355       N  0.79699786  0.99054427  0.89121600    -0.89300
H1356       H  0.83422896  0.02952142  0.83045763     0.18400
H1357       H  0.79590035  0.06828239  0.95357684     0.18400
N1358       N  0.83162743  0.10684436  0.89233129    -0.88300
H1359       H  0.81452698  0.98814191  0.89648811     0.35800
H1360       H  0.78882264  0.98282424  0.85622128     0.40900
H1361       H  0.84017630  0.11485082  0.92701540     0.40500
H1362       H  0.81363074  0.10855977  0.88812237     0.35400
C1363       C  0.72948819  0.06623046  0.89744391    -0.26400
C1364       C  0.73368642  0.06273407  0.84770218    -0.14400
C1365       C  0.74025912  0.04204891  0.83353910     0.36200
C1366       C  0.74297910  0.02533186  0.86974891    -0.25800
C1367       C  0.73994733  0.02948261  0.91985895    -0.15000
C1368       C  0.73290851  0.05000339  0.93393160     0.37300
N1369       N  0.73006380  0.05480287  0.98513414    -0.89300
H1370       H  0.72455572  0.08235707  0.90787547     0.18400
H1371       H  0.74798686  0.00930800  0.85901333     0.18400
N1372       N  0.74425347  0.03822153  0.78249061    -0.88300
H1373       H  0.72477455  0.07056011  0.98909010     0.35800
H1374       H  0.74969530  0.06233687  0.00172454     0.40900
H1375       H  0.72517176  0.03163599  0.76454192     0.40500
H1376       H  0.74875278  0.02191951  0.77848002     0.35400
C1377       C  0.78034300  0.45552994  0.13415087    -0.26400
C1378       C  0.75915296  0.42729390  0.13855333    -0.14400
C1379       C  0.73743147  0.41550122  0.10319263     0.36200
C1380       C  0.73693575  0.43246922  0.06509503    -0.25800
C1381       C  0.75703664  0.46113405  0.06255504    -0.15000
C1382       C  0.77927603  0.47275684  0.09687430     0.37300
N1383       N  0.80010643  0.00210758  0.09469368    -0.89300
H1384       H  0.79712011  0.46446827  0.16110063     0.18400
H1385       H  0.72024343  0.42354225  0.03798932     0.18400
N1386       N  0.71596917  0.38638806  0.10603905    -0.88300
H1387       H  0.81507686  0.00722642  0.12247530     0.35800
H1388       H  0.79006134  0.01365935  0.10183237     0.40900
H1389       H  0.72557344  0.37430437  0.10013494     0.40500
H1390       H  0.70124139  0.38129389  0.07782037     0.35400
C1391       C  0.71339489  0.47319153  0.11347390    -0.26400
C1392       C  0.70582739  0.46547796  0.06412654    -0.14400
C1393       C  0.67886910  0.44249472  0.05297434     0.36200
C1394       C  0.66045330  0.42783258  0.09169030    -0.25800
C1395       C  0.66880376  0.43467215  0.14084168    -0.15000
C1396       C  0.69548551  0.45745206  0.15200029     0.37300
N1397       N  0.70437029  0.46431301  0.20234337    -0.89300
H1398       H  0.73400751  0.99074319  0.12189229     0.18400
H1399       H  0.63999030  0.40999712  0.08337914     0.18400
N1400       N  0.66987925  0.43260277  0.00353714    -0.88300
H1401       H  0.72439802  0.98207571  0.20419767     0.35800
H1402       H  0.70614416  0.44765040  0.21711600     0.40900
H1403       H  0.68547247  0.44403036  0.97766965     0.40500
H1404       H  0.66616278  0.41197335  0.00157238     0.35400
C1405       C  0.75284464  0.97901973  0.02648752     0.02300
C1406       C  0.72769599  0.98019824  0.02609758     0.02200
C1407       C  0.72406935  0.49686717  0.99123803    -0.18300
C1408       C  0.74516511  0.51276283  0.95707191     0.02300
C1409       C  0.77068699  0.51218734  0.95825169     0.02200
C1410       C  0.77407555  0.99504726  0.99257914    -0.18300
H1411       H  0.79353065  0.99453992  0.99348070     0.04300
H1412       H  0.70464325  0.49744640  0.99078330     0.04300
O1413       O  0.78403894  0.86649258  0.20111884    -0.71800
O1414       O  0.78338805  0.91663920  0.29705937    -0.72000
O1415       O  0.78458225  0.86818592  0.30005344    -0.71900
O1416       O  0.78298528  0.91480059  0.19802373    -0.71900
O1417       O  0.73742503  0.89112766  0.19871671    -0.71900
O1418       O  0.73897147  0.84484414  0.30074518    -0.71900
O1419       O  0.73782962  0.89281547  0.29776580    -0.71800
O1420       O  0.73846674  0.84321808  0.20155962    -0.72000
V1421       V  0.78289155  0.89109601  0.24912531     1.35200
V1422       V  0.73908655  0.86846876  0.24972645     1.35200
C1423       C  0.76130082  0.84657650  0.18447831     0.77400
C1424       C  0.76041977  0.91308159  0.31403158     0.77500
C1425       C  0.76198496  0.84882500  0.31810905     0.77400
C1426       C  0.75989827  0.91044551  0.18025209     0.77300
O1427       O  0.75568255  0.60778634  0.69529392    -0.71800
O1428       O  0.75354038  0.64888714  0.80539489    -0.72000
O1429       O  0.75532464  0.60140607  0.79317144    -0.71900
O1430       O  0.75391786  0.65522973  0.70751887    -0.71900
O1431       O  0.70860085  0.62902541  0.70079071    -0.71900
O1432       O  0.70977910  0.57979646  0.79807248    -0.71900
O1433       O  0.70803239  0.62780961  0.79986199    -0.71800
O1434       O  0.71041599  0.58111370  0.69882711    -0.72000
V1435       V  0.75375596  0.62787561  0.75034375     1.35200
V1436       V  0.70999898  0.60484323  0.74943008     1.35200
C1437       C  0.73350781  0.58701290  0.67891076     0.77400
C1438       C  0.73049475  0.64591774  0.82036781     0.77500
C1439       C  0.73282512  0.58199509  0.81131200     0.77400
C1440       C  0.73112384  0.65074601  0.68837917     0.77300
O1441       O  0.89169098  0.65156616  0.69532685    -0.71800
O1442       O  0.84773156  0.60412128  0.79898537    -0.72000
O1443       O  0.89465638  0.65370697  0.79421132    -0.71900
O1444       O  0.84448612  0.60143633  0.70054908    -0.71900
O1445       O  0.87070606  0.58218724  0.69558214    -0.71900
O1446       O  0.91790159  0.63132137  0.79625167    -0.71900
O1447       O  0.87035520  0.58110711  0.79523767    -0.71800
O1448       O  0.91808522  0.63250736  0.69720072    -0.72000
V1449       V  0.87013876  0.62729596  0.74712218     1.35200
V1450       V  0.89379826  0.60712877  0.74604021     1.35200
C1451       C  0.91269635  0.65058148  0.67908951     0.77400
C1452       C  0.85147556  0.58463581  0.81500525     0.77500
C1453       C  0.91429476  0.65092096  0.81244962     0.77400
C1454       C  0.84927652  0.58318755  0.68167148     0.77300
O1455       O  0.62885269  0.91777483  0.19286839    -0.71800
O1456       O  0.58237689  0.87137596  0.29663424    -0.72000
O1457       O  0.62912418  0.92202652  0.29179742    -0.71900
O1458       O  0.58214310  0.86715939  0.19780116    -0.71900
O1459       O  0.60901212  0.84862676  0.20055670    -0.71900
O1460       O  0.65330190  0.90065815  0.29938375    -0.71900
O1461       O  0.60686053  0.85026459  0.29981200    -0.71800
O1462       O  0.65550860  0.89914745  0.20115351    -0.72000
V1463       V  0.60608582  0.89420329  0.24487896     1.35200
V1464       V  0.63060030  0.87499738  0.25010354     1.35200
C1465       C  0.65028313  0.91653016  0.17997792     0.77400
C1466       C  0.58676885  0.85295185  0.31604067     0.77500
C1467       C  0.64896523  0.92031613  0.31190763     0.77400
C1468       C  0.58815166  0.84909679  0.18206725     0.77300
C1469       C  0.98807536  0.72923393  0.95967979     0.02300
C1470       C  0.99072678  0.75637514  0.95870718     0.02200
C1471       C  0.00708261  0.77620051  0.99470158    -0.18300
C1472       C  0.52125235  0.76979430  0.03083413     0.02300
C1473       C  0.51896003  0.74298235  0.03134847     0.02200
C1474       C  0.50222780  0.72289156  0.99615319    -0.18300
H1475       H  0.49969523  0.70200986  0.99803104     0.04300
H1476       H  0.00888054  0.79681271  0.99451753     0.04300
C1477       C  0.98565147  0.73475124  0.53875775     0.02300
C1478       C  0.98896798  0.76200863  0.54231800     0.02200
C1479       C  0.00592777  0.78269555  0.50804845    -0.18300
C1480       C  0.52007888  0.77688996  0.47093946     0.02300
C1481       C  0.51644295  0.74945812  0.46688659     0.02200
C1482       C  0.99897110  0.72868598  0.50060353    -0.18300
H1483       H  0.49564144  0.70753520  0.49716501     0.04300
H1484       H  0.00840545  0.80354837  0.51063938     0.04300
O1485       O  0.65386632  0.75380481  0.21232880    -0.71800
O1486       O  0.59926531  0.75550997  0.29559961    -0.72000
O1487       O  0.64767301  0.75577958  0.31004842    -0.71900
O1488       O  0.60548444  0.75363696  0.19786865    -0.71900
O1489       O  0.57897851  0.70842666  0.20708618    -0.71900
O1490       O  0.62896696  0.71030107  0.30621883    -0.71900
O1491       O  0.58012602  0.71033481  0.30646384    -0.71800
O1492       O  0.62786059  0.70830819  0.20717734    -0.72000
V1493       V  0.62616032  0.75388275  0.25401297     1.35200
V1494       V  0.60433254  0.71008948  0.25668595     1.35200
C1495       C  0.64961014  0.73074448  0.19431037     0.77400
C1496       C  0.58111962  0.73329448  0.31677019     0.77500
C1497       C  0.64616939  0.73343809  0.32614446     0.77400
C1498       C  0.58457153  0.73073627  0.18418001     0.77300
O1499       O  0.91930127  0.79238023  0.70633279    -0.71800
O1500       O  0.86780219  0.78648427  0.80580500    -0.72000
O1501       O  0.91905995  0.79118706  0.80549531    -0.71900
O1502       O  0.86819737  0.78761272  0.70637402    -0.71900
O1503       O  0.84849018  0.74211736  0.70610272    -0.71900
O1504       O  0.90027824  0.74568450  0.80214945    -0.71900
O1505       O  0.84924904  0.74101926  0.80542093    -0.71800
O1506       O  0.89927226  0.74674313  0.70382639    -0.72000
V1507       V  0.89319164  0.78856169  0.75603436     1.35200
V1508       V  0.87462976  0.74480115  0.75447562     1.35200
C1509       C  0.91792207  0.77048551  0.68824031     0.77400
C1510       C  0.85008882  0.76274631  0.82318839     0.77500
C1511       C  0.91857008  0.76898708  0.81985978     0.77400
C1512       C  0.84995378  0.76418214  0.68864838     0.77300
C1513       C  0.72767376  0.73926122  0.04404676     0.02300
C1514       C  0.75174547  0.76631966  0.03854963     0.02200
C1515       C  0.77179141  0.77088836  0.00232896    -0.18300
C1516       C  0.76776386  0.74932068  0.96991803     0.02300
C1517       C  0.74346287  0.72266333  0.97455169     0.02200
C1518       C  0.72412256  0.71761830  0.01218129    -0.18300
H1519       H  0.70627848  0.69666741  0.01649173     0.04300
H1520       H  0.79044715  0.79140820  0.99898942     0.04300
C1521       C  0.72827837  0.74765732  0.47192692     0.02300
C1522       C  0.75472198  0.77240622  0.46966930     0.02200
C1523       C  0.77577870  0.77642876  0.50339857    -0.18300
C1524       C  0.77065319  0.75619283  0.53980868     0.02300
C1525       C  0.74370168  0.73186235  0.54278333     0.02200
C1526       C  0.72298319  0.72770095  0.50847648    -0.18300
H1527       H  0.70256064  0.70881399  0.51030102     0.04300
H1528       H  0.79618715  0.79528550  0.50118275     0.04300
C1529       C  0.72890629  0.98894483  0.45745940     0.02300
C1530       C  0.75184685  0.98418796  0.46135739     0.02200
C1531       C  0.77190026  0.99772731  0.49847105    -0.18300
C1532       C  0.76995243  0.51650992  0.53116405     0.02300
C1533       C  0.74673327  0.52107628  0.52705736     0.02200
C1534       C  0.72644301  0.00703299  0.49059165    -0.18300
H1535       H  0.70862103  0.01035122  0.48778066     0.04300
H1536       H  0.78870961  0.99299630  0.50249182     0.04300
C1537       C  0.80542300  0.74090300  0.93957448    -0.26400
C1538       C  0.78966424  0.75435984  0.93276563    -0.14400
C1539       C  0.79458793  0.77137845  0.89050847     0.36200
C1540       C  0.81522470  0.77449695  0.85655855    -0.25800
C1541       C  0.83047654  0.76040275  0.86272206    -0.15000
C1542       C  0.82577714  0.74368891  0.90544779     0.37300
N1543       N  0.84135528  0.72960713  0.91614683    -0.89300
H1544       H  0.80193190  0.72809846  0.97211455     0.18400
H1545       H  0.81864232  0.78727340  0.82398371     0.18400
N1546       N  0.77873570  0.78518280  0.88006155    -0.88300
H1547       H  0.85128152  0.73707362  0.95013757     0.35800
H1548       H  0.85746516  0.73474063  0.89091783     0.40900
H1549       H  0.76353696  0.78092254  0.90684303     0.40500
H1550       H  0.76783769  0.77679527  0.84714117     0.35400
C1551       C  0.82430541  0.78424956  0.64370125    -0.26400
C1552       C  0.83094842  0.76267377  0.64830896    -0.14400
C1553       C  0.81959553  0.74035972  0.61356939     0.36200
C1554       C  0.80144988  0.73970151  0.57680731    -0.25800
C1555       C  0.79346622  0.76029054  0.57428548    -0.15000
C1556       C  0.80556583  0.78312096  0.60728010     0.37300
N1557       N  0.79793082  0.80454549  0.60525640    -0.89300
H1558       H  0.83297459  0.80165567  0.66947833     0.18400
H1559       H  0.79273939  0.72238887  0.55082856     0.18400
N1560       N  0.82621911  0.71818289  0.61408968    -0.88300
H1561       H  0.78942544  0.80516171  0.63936441     0.35800
H1562       H  0.81622103  0.82387745  0.59997194     0.40900
H1563       H  0.81847657  0.70656561  0.64652899     0.40500
H1564       H  0.84801618  0.72703257  0.61277944     0.35400
C1565       C  0.65971653  0.72241997  0.10958557    -0.26400
C1566       C  0.66920617  0.73020488  0.15805151    -0.14400
C1567       C  0.69738705  0.73861582  0.16985252     0.36200
C1568       C  0.71533313  0.73934264  0.13253040    -0.25800
C1569       C  0.70641747  0.73343497  0.08322008    -0.15000
C1570       C  0.67797336  0.72433826  0.07200068     0.37300
N1571       N  0.66724788  0.71829243  0.02266771    -0.89300
H1572       H  0.63811700  0.71582081  0.10042662     0.18400
H1573       H  0.73680870  0.74554554  0.14189377     0.18400
N1574       N  0.70849610  0.74626868  0.21897435    -0.88300
H1575       H  0.66788392  0.70071461  0.00969679     0.35800
H1576       H  0.67973804  0.73550818  0.00014252     0.40900
H1577       H  0.69327276  0.74423473  0.24413492     0.40500
H1578       H  0.72393408  0.76754013  0.21843069     0.35400
C1579       C  0.68671933  0.75081049  0.44627122    -0.26400
C1580       C  0.70602400  0.74193548  0.43555409    -0.14400
C1581       C  0.70410613  0.72831150  0.39028165     0.36200
C1582       C  0.68331906  0.72460581  0.35638794    -0.25800
C1583       C  0.66483539  0.73465503  0.36609846    -0.15000
C1584       C  0.66609142  0.74736535  0.41216930     0.37300
N1585       N  0.64684977  0.75681047  0.42581757    -0.89300
H1586       H  0.68794630  0.76086120  0.48129292     0.18400
H1587       H  0.68223106  0.71462423  0.32135486     0.18400
N1588       N  0.72283392  0.71813664  0.37728616    -0.88300
H1589       H  0.63590450  0.74541034  0.45699177     0.35800
H1590       H  0.63168648  0.75218997  0.39874711     0.40900
H1591       H  0.73722878  0.72158179  0.40525773     0.40500
H1592       H  0.73446000  0.72964079  0.34670427     0.35400
C1593       C  0.52802073  0.74783417  0.37824401    -0.26400
C1594       C  0.53080213  0.74217856  0.42782299    -0.14400
C1595       C  0.54830250  0.73094889  0.43984720     0.36200
C1596       C  0.56338790  0.72670192  0.40227821    -0.25800
C1597       C  0.56212443  0.73444134  0.35355132    -0.15000
C1598       C  0.54411103  0.74482270  0.34117142     0.37300
N1599       N  0.54246261  0.75247730  0.29111221    -0.89300
H1600       H  0.51380495  0.75537984  0.36864235     0.18400
H1601       H  0.57728699  0.71866273  0.41139025     0.18400
N1602       N  0.55138922  0.72474413  0.49020718    -0.88300
H1603       H  0.52853627  0.76018863  0.28828612     0.35800
H1604       H  0.53404271  0.73413219  0.26994743     0.40900
H1605       H  0.56089651  0.74368653  0.50973757     0.40500
H1606       H  0.56495021  0.71657953  0.49260504     0.35400
C1607       C  0.95135392  0.77227429  0.56524862    -0.26400
C1608       C  0.97382875  0.76873979  0.58042095    -0.14400
C1609       C  0.97931676  0.76868352  0.63143695     0.36200
C1610       C  0.96108510  0.77021249  0.66567417    -0.25800
C1611       C  0.93784758  0.77229500  0.65041451    -0.15000
C1612       C  0.93323786  0.77403739  0.59956644     0.37300
N1613       N  0.90991729  0.77640293  0.58133346    -0.89300
H1614       H  0.94706906  0.77234125  0.52626109     0.18400
H1615       H  0.96483591  0.76927126  0.70467314     0.18400
N1616       N  0.50310374  0.76726263  0.64984425    -0.88300
H1617       H  0.91809214  0.79551164  0.56242238     0.35800
H1618       H  0.89769801  0.77729471  0.60990109     0.40900
H1619       H  0.51582625  0.76721486  0.62139669     0.40500
H1620       H  0.49556975  0.74833529  0.66910786     0.35400
C1621       C  0.56178250  0.74303359  0.05910763    -0.26400
C1622       C  0.53395920  0.73577760  0.06884340    -0.14400
C1623       C  0.52206769  0.72429434  0.11530211     0.36200
C1624       C  0.53874145  0.72133510  0.15132104    -0.25800
C1625       C  0.56714198  0.73039563  0.14262877    -0.15000
C1626       C  0.57867729  0.74083095  0.09544596     0.37300
N1627       N  0.60733028  0.74961634  0.08304696    -0.89300
H1628       H  0.57081808  0.75156709  0.02335828     0.18400
H1629       H  0.52975024  0.71304582  0.18717971     0.18400
N1630       N  0.49349952  0.71587914  0.12753238    -0.88300
H1631       H  0.60700839  0.73673993  0.05435439     0.35800
H1632       H  0.61790193  0.74650753  0.11208571     0.40900
H1633       H  0.48298591  0.71875790  0.09805075     0.40500
H1634       H  0.49394880  0.72893149  0.15599646     0.35400
C1635       C  0.95541664  0.77085387  0.93923139    -0.26400
C1636       C  0.97525091  0.76383991  0.92217310    -0.14400
C1637       C  0.97840701  0.76184078  0.87098112     0.36200
C1638       C  0.95990564  0.76429035  0.83828362    -0.25800
C1639       C  0.93916219  0.76989881  0.85557571    -0.15000
C1640       C  0.93733928  0.77397097  0.90662072     0.37300
N1641       N  0.91704277  0.78041929  0.92689559    -0.89300
H1642       H  0.95312660  0.77272482  0.97849226     0.18400
H1643       H  0.96141328  0.76146055  0.79910375     0.18400
N1644       N  0.99998531  0.75675708  0.85260618    -0.88300
H1645       H  0.90358562  0.76358835  0.94943190     0.35800
H1646       H  0.90464204  0.78221468  0.89961893     0.40900
H1647       H  0.01933126  0.77409864  0.86204176     0.40500
H1648       H  0.99930901  0.75556560  0.81412833     0.35400
C1649       C  0.68052742  0.95223395  0.43490515    -0.26400
C1650       C  0.70673081  0.97437738  0.42005730    -0.14400
C1651       C  0.71218408  0.98089975  0.36974553     0.36200
C1652       C  0.69212997  0.96394402  0.33474182    -0.25800
C1653       C  0.66687447  0.94049928  0.34937910    -0.15000
C1654       C  0.66067054  0.93475460  0.39981511     0.37300
N1655       N  0.63464953  0.91081412  0.41501620    -0.89300
H1656       H  0.67634946  0.94753821  0.47380688     0.18400
H1657       H  0.69674354  0.96849470  0.29603478     0.18400
N1658       N  0.73823988  0.00440466  0.35419153    -0.88300
H1659       H  0.63328182  0.90970988  0.45346247     0.35800
H1660       H  0.63476958  0.89271145  0.40331079     0.40900
H1661       H  0.73375507  0.01803359  0.33431141     0.40500
H1662       H  0.74797357  0.99700167  0.33019249     0.35400
C1663       C  0.56754316  0.80454686  0.06602596    -0.26400
C1664       C  0.53822998  0.79123930  0.06827291    -0.14400
C1665       C  0.52538257  0.79758553  0.10706317     0.36200
C1666       C  0.54202543  0.81677381  0.14364328    -0.25800
C1667       C  0.57136808  0.82922382  0.14265354    -0.15000
C1668       C  0.58431085  0.82312148  0.10327759     0.37300
N1669       N  0.61437318  0.83642008  0.10034387    -0.89300
H1670       H  0.57732660  0.80003265  0.03545071     0.18400
H1671       H  0.53195035  0.82147234  0.17353479     0.18400
N1672       N  0.49543447  0.78421894  0.10972470    -0.88300
H1673       H  0.62041619  0.83132481  0.06714884     0.35800
H1674       H  0.62098930  0.82785777  0.12816917     0.40900
H1675       H  0.48992492  0.79992080  0.10969130     0.40500
H1676       H  0.48904574  0.77350835  0.14330909     0.35400
C1677       C  0.58261544  0.82733716  0.39359526    -0.26400
C1678       C  0.56959699  0.83542389  0.35772531    -0.14400
C1679       C  0.54072947  0.82642904  0.36226845     0.36200
C1680       C  0.52536849  0.80852358  0.40141714    -0.25800
C1681       C  0.53824924  0.79959804  0.43608176    -0.15000
C1682       C  0.56749006  0.80998650  0.43307722     0.37300
N1683       N  0.58255458  0.80363453  0.46944402    -0.89300
H1684       H  0.60490807  0.83475082  0.39116221     0.18400
H1685       H  0.00295707  0.80046108  0.40376763     0.18400
N1686       N  0.52676488  0.83415104  0.32585891    -0.88300
H1687       H  0.58979654  0.79131936  0.45258300     0.35800
H1688       H  0.56969087  0.79209056  0.49877461     0.40900
H1689       H  0.53391289  0.85561976  0.33005156     0.40500
H1690       H  0.00516640  0.82386232  0.33255470     0.35400
C1691       C  0.83932057  0.56477076  0.59600807    -0.26400
C1692       C  0.83005009  0.56352585  0.64446255    -0.14400
C1693       C  0.80190842  0.54481826  0.65630628     0.36200
C1694       C  0.78317862  0.52797247  0.61950755    -0.25800
C1695       C  0.79174269  0.53061346  0.57010594    -0.15000
C1696       C  0.82047682  0.54879297  0.55858934     0.37300
N1697       N  0.83088461  0.05282495  0.50911982    -0.89300
H1698       H  0.86103400  0.57928607  0.58673146     0.18400
H1699       H  0.76147061  0.51376031  0.62921707     0.18400
N1700       N  0.79214502  0.54344559  0.70559016    -0.88300
H1701       H  0.81895404  0.05840396  0.48676732     0.35800
H1702       H  0.82903168  0.03405613  0.49620024     0.40900
H1703       H  0.78346751  0.52267435  0.71785509     0.40500
H1704       H  0.77623421  0.54858183  0.70425080     0.35400
C1705       C  0.95932547  0.67845063  0.63892293    -0.26400
C1706       C  0.93083294  0.67059872  0.64079193    -0.14400
C1707       C  0.92040660  0.68292739  0.60744552     0.36200
C1708       C  0.93860118  0.70309389  0.57372396    -0.25800
C1709       C  0.96732927  0.71195056  0.57333482    -0.15000
C1710       C  0.97785980  0.69930387  0.60631090     0.37300
N1711       N  0.00711087  0.70750190  0.60900237    -0.89300
H1712       H  0.96758332  0.66918974  0.66451350     0.18400
H1713       H  0.93027547  0.71224165  0.54803736     0.18400
N1714       N  0.89129337  0.67487596  0.60728988    -0.88300
H1715       H  0.01410855  0.71502064  0.64460643     0.35800
H1716       H  0.51937148  0.72417726  0.58540947     0.40900
H1717       H  0.88319146  0.66719706  0.57223773     0.40500
H1718       H  0.88979650  0.69290576  0.61349995     0.35400
C1719       C  0.96075861  0.67647846  0.85408198    -0.26400
C1720       C  0.93262464  0.67000291  0.85178175    -0.14400
C1721       C  0.92257205  0.68157322  0.88763390     0.36200
C1722       C  0.94059485  0.69911386  0.92429974    -0.25800
C1723       C  0.96902099  0.70680622  0.92499588    -0.15000
C1724       C  0.97919833  0.69504755  0.88994557     0.37300
N1725       N  0.50846265  0.70331126  0.88891227    -0.89300
H1726       H  0.96861972  0.66770773  0.82681308     0.18400
H1727       H  0.93259189  0.70783030  0.95143187     0.18400
N1728       N  0.89415870  0.67580312  0.88822397    -0.88300
H1729       H  0.51285014  0.69450578  0.85842046     0.35800
H1730       H  0.51265193  0.69471849  0.91991861     0.40900
H1731       H  0.88093334  0.65403186  0.88898026     0.40500
H1732       H  0.89037059  0.68396544  0.85619619     0.35400
C1733       C  0.75804242  0.58328325  0.60531002    -0.26400
C1734       C  0.73504354  0.57032946  0.63752177    -0.14400
C1735       C  0.71452601  0.54185522  0.62997384     0.32600
C1736       C  0.71852250  0.52661682  0.59241294    -0.25800
C1737       C  0.74224520  0.53929287  0.56183763    -0.15000
C1738       C  0.76154197  0.56836853  0.56688201     0.37300
N1739       N  0.78435604  0.58360128  0.53315856    -0.89300
H1740       H  0.77334664  0.60540627  0.60956508     0.18400
H1741       H  0.70350134  0.50443182  0.58790295     0.18400
N1742       N  0.69007262  0.52830428  0.66085670    -0.88300
H1743       H  0.80310778  0.59027884  0.55240582     0.35800
H1744       H  0.78381620  0.57100630  0.50393831     0.40900
H1745       H  0.69671877  0.52710581  0.69637185     0.40500
H1746       H  0.67681690  0.50757706  0.64939782     0.35400
C1747       C  0.73985805  0.66049729  0.90706516    -0.26400
C1748       C  0.73022734  0.66343820  0.86080366    -0.14400
C1749       C  0.72305723  0.68462167  0.85334628     0.36200
C1750       C  0.72664587  0.70289226  0.89209442    -0.25800
C1751       C  0.73709516  0.70049624  0.93784783    -0.15000
C1752       C  0.74304721  0.67854518  0.94604130     0.37300
N1753       N  0.75334912  0.67460381  0.99237744    -0.89300
H1754       H  0.74540462  0.64428711  0.91269154     0.18400
H1755       H  0.72203166  0.71972276  0.88601300     0.18400
N1756       N  0.71304850  0.68891560  0.80696716    -0.88300
H1757       H  0.73840152  0.65494798  0.00613756     0.35800
H1758       H  0.75533914  0.68944287  0.01848978     0.40900
H1759       H  0.71115134  0.67430972  0.78049311     0.40500
H1760       H  0.72800488  0.70872761  0.79378465     0.35400
C1761       C  0.73474492  0.69608968  0.66644457    -0.26400
C1762       C  0.73117194  0.67012806  0.65135765    -0.14400
C1763       C  0.72929305  0.66350169  0.60094770     0.36200
C1764       C  0.73216842  0.68368329  0.56611098    -0.25800
C1765       C  0.73687028  0.71019055  0.58105883    -0.15000
C1766       C  0.73700297  0.71605125  0.63192713     0.37300
N1767       N  0.73886902  0.74160289  0.64984646    -0.89300
H1768       H  0.73590404  0.70094151  0.70532297     0.18400
H1769       H  0.73187569  0.67920349  0.52715080     0.18400
N1770       N  0.72519900  0.63662615  0.58548283    -0.88300
H1771       H  0.75766112  0.75267285  0.66941303     0.35800
H1772       H  0.73926710  0.75449814  0.62119132     0.40900
H1773       H  0.74289915  0.63550559  0.59611896     0.40500
H1774       H  0.72412393  0.63504305  0.54705328     0.35400
C1775       C  0.77754438  0.97702370  0.39274628    -0.26400
C1776       C  0.75532780  0.96533633  0.42658076    -0.14400
C1777       C  0.73588883  0.93628968  0.42515297     0.36200
C1778       C  0.73791634  0.91979600  0.38770189    -0.25800
C1779       C  0.75961279  0.93155759  0.35278310    -0.15000
C1780       C  0.77985398  0.96043790  0.35558005     0.37300
N1781       N  0.80206771  0.97298369  0.31988511    -0.89300
H1782       H  0.79248051  0.49937913  0.39426199     0.18400
H1783       H  0.72267962  0.89752587  0.38614936     0.18400
N1784       N  0.71421574  0.92372322  0.46177450    -0.88300
H1785       H  0.81519332  0.49437131  0.32739312     0.35800
H1786       H  0.79288779  0.97182871  0.28556112     0.40900
H1787       H  0.72394337  0.92577393  0.49584817     0.40500
H1788       H  0.70146956  0.90217002  0.45527674     0.35400
C1789       C  0.74040508  0.81963276  0.10820551    -0.26400
C1790       C  0.76101547  0.82803276  0.14493084    -0.14400
C1791       C  0.78036218  0.81823705  0.14353651     0.36200
C1792       C  0.77774049  0.79912023  0.10660579    -0.25800
C1793       C  0.75645036  0.78996174  0.07100493    -0.15000
C1794       C  0.73824689  0.80123598  0.07067377     0.37300
N1795       N  0.71769722  0.79486493  0.03268186    -0.89300
H1796       H  0.72593826  0.82765381  0.10840081     0.18400
H1797       H  0.79161403  0.79039462  0.10669874     0.18400
N1798       N  0.80149350  0.82638779  0.18104934    -0.88300
H1799       H  0.69782504  0.78339738  0.04867547     0.35800
H1800       H  0.71916465  0.78255783  0.00484599     0.40900
H1801       H  0.81605967  0.84767457  0.17576658     0.40500
H1802       H  0.81257875  0.81562399  0.17661424     0.35400
C1803       C  0.74727425  0.81085180  0.44005840    -0.26400
C1804       C  0.75998390  0.79443900  0.43302072    -0.14400
C1805       C  0.77509313  0.79732441  0.38941265     0.36200
C1806       C  0.77628183  0.81599097  0.35263267    -0.25800
C1807       C  0.76228414  0.83128692  0.35875464    -0.15000
C1808       C  0.74807417  0.82904024  0.40329774     0.37300
N1809       N  0.73456813  0.84520441  0.41234447    -0.89300
H1810       H  0.73588462  0.80880942  0.47381193     0.18400
H1811       H  0.78727936  0.81788905  0.31845582     0.18400
N1812       N  0.78807693  0.78046081  0.38189665    -0.88300
H1813       H  0.71862841  0.83969344  0.38637496     0.35800
H1814       H  0.74937630  0.86651701  0.40798688     0.40900
H1815       H  0.80412856  0.78668837  0.40790690     0.40500
H1816       H  0.79763337  0.78452712  0.34725686     0.35400
C1817       C  0.82608255  0.53810666  0.85753118    -0.26400
C1818       C  0.83389634  0.56668967  0.85578053    -0.14400
C1819       C  0.82330633  0.57759264  0.89163121     0.36200
C1820       C  0.80420984  0.55969967  0.92675254    -0.25800
C1821       C  0.79454118  0.53078329  0.92592467    -0.15000
C1822       C  0.80622280  0.51999503  0.89208530     0.37300
N1823       N  0.79699096  0.49053540  0.89120748    -0.89300
H1824       H  0.83422204  0.52951119  0.83044592     0.18400
H1825       H  0.79590668  0.56827800  0.95357966     0.18400
N1826       N  0.83163594  0.60683901  0.89233568    -0.88300
H1827       H  0.81451893  0.48813079  0.89647673     0.35800
H1828       H  0.78881416  0.48281607  0.85621324     0.40900
H1829       H  0.84018730  0.61484338  0.92701944     0.40500
H1830       H  0.81364124  0.60855833  0.88813180     0.35400
C1831       C  0.72949725  0.56623384  0.89744024    -0.26400
C1832       C  0.73369091  0.56273358  0.84769816    -0.14400
C1833       C  0.74025968  0.54204556  0.83353556     0.36200
C1834       C  0.74297871  0.52532838  0.86974634    -0.25800
C1835       C  0.73995015  0.52948209  0.91985646    -0.15000
C1836       C  0.73291705  0.55000696  0.93392860     0.37300
N1837       N  0.73007792  0.55481081  0.98513129    -0.89300
H1838       H  0.72456864  0.58236324  0.90787128     0.18400
H1839       H  0.74798320  0.50930210  0.85901147     0.18400
N1840       N  0.74425131  0.53821575  0.78248686    -0.88300
H1841       H  0.72479285  0.57057107  0.98908692     0.35800
H1842       H  0.74971038  0.56234263  0.00171676     0.40900
H1843       H  0.72516956  0.53163162  0.76454024     0.40500
H1844       H  0.74874841  0.52191198  0.77847683     0.35400
C1845       C  0.78033952  0.95552932  0.13415510    -0.26400
C1846       C  0.75915091  0.92729242  0.13855443    -0.14400
C1847       C  0.73743289  0.91549874  0.10318751     0.36200
C1848       C  0.73693747  0.93246712  0.06508961    -0.25800
C1849       C  0.75703661  0.96113282  0.06255279    -0.15000
C1850       C  0.77927372  0.97275609  0.09687660     0.37300
N1851       N  0.80011005  0.50210786  0.09468869    -0.89300
H1852       H  0.79711462  0.96446838  0.16110860     0.18400
H1853       H  0.72024696  0.92353957  0.03798062     0.18400
N1854       N  0.71597415  0.88638396  0.10602743    -0.88300
H1855       H  0.81508186  0.50722620  0.12246719     0.35800
H1856       H  0.79006646  0.51366093  0.10183028     0.40900
H1857       H  0.72558273  0.87430389  0.10012716     0.40500
H1858       H  0.70124918  0.88128854  0.07780348     0.35400
C1859       C  0.71339392  0.97319348  0.11346882    -0.26400
C1860       C  0.70582702  0.96547548  0.06412292    -0.14400
C1861       C  0.67886973  0.94249027  0.05297290     0.36200
C1862       C  0.66045450  0.92782961  0.09169011    -0.25800
C1863       C  0.66880422  0.93467393  0.14084067    -0.15000
C1864       C  0.69548459  0.95745672  0.15199694     0.37300
N1865       N  0.70436806  0.96432333  0.20233940    -0.89300
H1866       H  0.73400931  0.49073926  0.12189951     0.18400
H1867       H  0.63999239  0.90999224  0.08338103     0.18400
N1868       N  0.66988028  0.93259551  0.00353689    -0.88300
H1869       H  0.72440130  0.48206374  0.20420379     0.35800
H1870       H  0.70614388  0.94766339  0.21711959     0.40900
H1871       H  0.68547305  0.94402326  0.97766863     0.40500
H1872       H  0.66616591  0.91196677  0.00157558     0.35400
loop_ 
_geom_bond_atom_site_label_1 
_geom_bond_atom_site_label_2 
_geom_bond_distance 
_geom_bond_site_symmetry_2 
_ccdc_geom_bond_type 
C1            C2   1.416       .  A
C1            C6   1.400   1_554  A
C1          C445   1.482       .  S
C2          C471   1.396   1_554  A
C2          C456   1.482       .  S
C3            C4   1.399   1_565  A
C3          C470   1.396   1_556  A
C3            H8   1.084       .  S
C4            C5   1.420       .  A
C4          C431   1.484       .  S
C5          C474   1.399   1_545  A
C5          C417   1.482       .  S
C6          C473   1.399       .  A
C6            H7   1.084       .  S
O9           V17   1.900       .  S
O9           C19   1.264       .  A
O10          V17   1.902       .  S
O10          C20   1.265       .  A
O11          V17   1.900       .  S
O11          C21   1.263       .  A
O12          V17   1.898       .  S
O12          C22   1.264       .  A
O13          V18   1.892       .  S
O13          C22   1.263       .  A
O14          V18   1.893       .  S
O14          C21   1.263       .  A
O15          V18   1.893       .  S
O15          C20   1.263       .  A
O16          V18   1.893       .  S
O16          C19   1.263       .  A
V17          V18   2.088       .  T
C19         C386   1.474       .  S
C20         C375   1.477       .  S
C21         C403   1.468       .  S
C22         C442   1.473       .  S
O23          V31   1.891       .  S
O23          C33   1.264       .  A
O24          V31   1.891       .  S
O24          C34   1.262       .  A
O25          V31   1.894       .  S
O25          C35   1.262       .  A
O26          V31   1.893       .  S
O26          C36   1.262       .  A
O27          V32   1.899       .  S
O27          C36   1.263       .  A
O28          V32   1.900       .  S
O28          C35   1.263       .  A
O29          V32   1.900       .  S
O29          C34   1.264       .  A
O30          V32   1.901       .  S
O30          C33   1.265       .  A
V31          V32   2.087       .  T
C33         C330   1.478       .  S
C34         C344   1.464       .  S
C35         C428   1.463       .  S
C36         C358   1.461       .  S
O37          V45   1.892       .  S
O37          C47   1.263       .  A
O38          V45   1.885       .  S
O38          C48   1.261       .  A
O39          V45   1.897       .  S
O39          C49   1.264       .  A
O40          V45   1.898       .  S
O40          C50   1.264       .  A
O41          V46   1.904       .  S
O41          C50   1.264       .  A
O42          V46   1.902       .  S
O42          C49   1.265       .  A
O43          V46   1.909       .  S
O43          C48   1.267       .  A
O44          V46   1.904       .  S
O44          C47   1.266       .  A
V45          V46   2.086       .  T
C47         C302   1.479       .  S
C48         C414   1.476       .  S
C49         C316   1.483       .  S
C50         C288   1.471       .  S
O51          V59   1.902       .  S
O51          C61   1.264       .  A
O52          V59   1.901       .  S
O52          C62   1.264       .  A
O53          V59   1.904       .  S
O53          C63   1.264       .  A
O54          V59   1.902       .  S
O54          C64   1.265       .  A
O55          V60   1.896       .  S
O55          C64   1.263       .  A
O56          V60   1.891       .  S
O56          C63   1.261       .  A
O57          V60   1.897       .  S
O57          C62   1.265       .  A
O58          V60   1.894       .  S
O58          C61   1.262       .  A
V59          V60   2.088       .  T
C61         C459   1.465       .  S
C62         C274   1.480       .  S
C63         C249   1.463       .  S
C64         C263   1.477       .  S
C65          C66   1.421       .  A
C65        C1006   1.405       .  A
C65         C319   1.487       .  S
C66          C67   1.403       .  A
C66         C232   1.490       .  S
C67        C1004   1.401   1_556  A
C67          H72   1.084       .  S
C68          C69   1.412       .  A
C68        C1003   1.401   1_554  A
C68         C260   1.480       .  S
C69          C70   1.401   1_554  A
C69         C218   1.481       .  S
C70        C1001   1.405   1_455  A
C70          H71   1.083   1_455  S
C73          C74   1.416       .  A
C73          C78   1.401       .  A
C73         C305   1.484       .  S
C74          C75   1.402       .  A
C74         C204   1.486       .  S
C75        C1012   1.404       .  A
C75          H80   1.084       .  S
C76          C77   1.419       .  A
C76        C1011   1.404       .  A
C76         C277   1.484       .  S
C77        C1014   1.402   1_455  A
C77         C190   1.491       .  S
C78        C1013   1.402       .  A
C78        H1015   1.084       .  S
H79        C1014   1.084       .  S
O81          V89   1.900       .  S
O81          C91   1.264       .  A
O82          V89   1.898       .  S
O82          C92   1.264       .  A
O83          V89   1.896       .  S
O83          C93   1.263       .  A
O84          V89   1.896       .  S
O84          C94   1.264       .  A
O85          V90   1.906       .  S
O85          C94   1.265       .  A
O86          V90   1.903       .  S
O86          C93   1.265       .  A
O87          V90   1.902       .  S
O87          C92   1.264       .  A
O88          V90   1.902       .  S
O88          C91   1.264       .  A
V89          V90   2.083       .  T
C91         C162   1.471       .  S
C92         C193   1.469       .  S
C93         C179   1.471       .  S
C94         C221   1.473       .  S
O95         V103   1.905       .  S
O95         C105   1.264       .  A
O96         V103   1.906       .  S
O96         C106   1.265       .  A
O97         V103   1.907       .  S
O97         C107   1.265       .  A
O98         V103   1.906       .  S
O98         C108   1.266       .  A
O99         V104   1.896       .  S
O99         C108   1.263       .  A
O100        V104   1.895       .  S
O100        C107   1.262       .  A
O101        V104   1.902       .  S
O101        C106   1.265       .  A
O102        V104   1.896       .  S
O102        C105   1.262       .  A
V103        V104   2.088       .  T
C105        C207   1.469       .  S
C106        C137   1.481       .  S
C107        C235   1.471       .  S
C108        C148   1.486       .  S
C109        C110   1.420       .  A
C109        C114   1.402       .  A
C109        C165   1.493       .  S
C110        C111   1.404       .  A
C110        C389   1.480       .  S
C111        C112   1.400   1_554  A
C111        H116   1.084   1_554  S
C112        C113   1.411       .  A
C112        C134   1.488       .  S
C113        C114   1.399   1_556  A
C113        C347   1.473       .  S
C114        H115   1.083       .  S
C117        C118   1.411       .  A
C117        C122   1.395       .  A
C117        C176   1.478       .  S
C118        C119   1.404       .  A
C118        C400   1.477       .  S
C119        C120   1.405       .  A
C119        H124   1.084       .  S
C120        C121   1.418       .  A
C120        C151   1.489       .  S
C121        C122   1.398       .  A
C121        C361   1.478       .  S
C122        H123   1.085       .  S
C125        C126   1.413       .  A
C125        C130   1.395       .  A
C125        C246   1.477       .  S
C126        C127   1.401       .  A
C126        C372   1.482       .  S
C127        C596   1.404       .  A
C127        H132   1.083       .  S
C128        C129   1.422       .  A
C128        C595   1.404   1_545  A
C128        C291   1.492       .  S
C129        C598   1.400       .  A
C129        C333   1.482       .  S
C130        C597   1.400       .  A
C130        H131   1.085       .  S
C133        C134   1.402       .  A
C133        C138   1.402       .  A
C133        H140   1.084       .  S
C134        C135   1.416       .  A
C135        C136   1.405       .  A
C135        N142   1.439       .  S
C136        C137   1.405       .  A
C136        H141   1.084       .  S
C137        C138   1.419       .  A
C138        N139   1.440       .  S
N139        H143   1.046       .  S
N139        H144   1.042       .  S
N142        H145   1.043       .  S
N142        H146   1.046       .  S
C147        C148   1.407       .  A
C147        C152   1.406       .  A
C147        H154   1.084       .  S
C148        C149   1.419       .  A
C149        C150   1.398       .  A
C149        N156   1.433       .  S
C150        C151   1.402       .  A
C150        H155   1.084       .  S
C151        C152   1.408       .  A
C152        N153   1.432       .  S
N153        H157   1.046       .  S
N153        H158   1.045       .  S
N156        H159   1.045       .  S
N156        H160   1.046       .  S
C161        C162   1.401       .  A
C161        C166   1.398       .  A
C161        H168   1.084       .  S
C162        C163   1.415       .  A
C163        C164   1.401       .  A
C163        N170   1.439       .  S
C164        C165   1.406       .  A
C164        H169   1.083       .  S
C165        C166   1.417       .  A
C166        N167   1.433       .  S
N167        H171   1.043       .  S
N167        H172   1.044       .  S
N170        H173   1.043       .  S
N170        H174   1.046       .  S
C175        C176   1.401       .  A
C175        C180   1.401       .  A
C175        H182   1.084       .  S
C176        C177   1.415       .  A
C177        C178   1.400       .  A
C177        N184   1.439       .  S
C178        C179   1.402       .  A
C178        H183   1.084       .  S
C179        C180   1.417       .  A
C180        N181   1.439       .  S
N181        H185   1.046       .  S
N181        H186   1.043       .  S
N184        H187   1.043       .  S
N184        H188   1.046       .  S
C189        C190   1.406       .  A
C189        C194   1.404       .  A
C189        H196   1.082       .  S
C190        C191   1.415       .  A
C191        C192   1.406       .  A
C191        N198   1.438       .  S
C192        C193   1.401       .  A
C192        H197   1.084       .  S
C193        C194   1.407       .  A
C194        N195   1.438       .  S
N195        H199   1.046       .  S
N195        H200   1.045       .  S
N198        H201   1.045       .  S
N198        H202   1.046       .  S
C203        C204   1.404       .  A
C203        C208   1.402       .  A
C203        H210   1.084       .  S
C204        C205   1.417       .  A
C205        C206   1.400       .  A
C205       N1148   1.438       .  S
C206        C207   1.400       .  A
C206        H211   1.084       .  S
C207        C208   1.414       .  A
C208        N209   1.439       .  S
N209        H213   1.045       .  S
N209        H214   1.043       .  S
N212       C1141   1.438   1_455  S
N212        H215   1.043       .  S
N212        H216   1.045   1_455  S
C217        C218   1.401       .  A
C217        C222   1.400       .  A
C217        H224   1.084       .  S
C218        C219   1.415       .  A
C219        C220   1.403       .  A
C219        N226   1.438   1_455  S
C220        C221   1.403       .  A
C220        H225   1.084       .  S
C221        C222   1.417       .  A
C222        N223   1.439       .  S
N223        H227   1.046       .  S
N223        H228   1.042       .  S
N226        H229   1.044       .  S
N226        H230   1.045       .  S
C231        C232   1.404       .  A
C231        C236   1.403       .  A
C231        H238   1.084       .  S
C232        C233   1.411       .  A
C233        C234   1.405       .  A
C233        N240   1.437       .  S
C234        C235   1.402       .  A
C234        H239   1.084       .  S
C235        C236   1.415       .  A
C236        N237   1.438       .  S
N237        H241   1.045       .  S
N237        H242   1.043       .  S
N240        H243   1.045       .  S
N240        H244   1.046       .  S
C245        C246   1.403       .  A
C245        C250   1.405       .  A
C245        H252   1.084       .  S
C246        C247   1.405       .  A
C247        C248   1.400       .  A
C247        N254   1.432       .  S
C248        C249   1.400       .  A
C248        H253   1.080       .  S
C249        C250   1.408       .  A
C250        N251   1.438       .  S
N251        H255   1.046       .  S
N251        H256   1.046       .  S
N254        H257   1.045       .  S
N254        H258   1.046       .  S
C259        C260   1.400       .  A
C259        C264   1.405       .  A
C259        H266   1.083       .  S
C260        C261   1.406       .  A
C261        C262   1.403       .  A
C261        N268   1.432   1_455  S
C262        C263   1.404       .  A
C262        H267   1.084       .  S
C263        C264   1.414       .  A
C264        N265   1.438       .  S
N265        H269   1.046       .  S
N265        H270   1.045       .  S
N268        H271   1.045       .  S
N268        H272   1.045       .  S
C273        C274   1.404       .  A
C273        C278   1.398       .  A
C273        H280   1.084       .  S
C274        C275   1.413       .  A
C275        C276   1.407       .  A
C275        N282   1.438       .  S
C276        C277   1.403       .  A
C276       H1217   1.084       .  S
C277        C278   1.415       .  A
C278        N279   1.438       .  S
N279        H283   1.045       .  S
N279        H284   1.043       .  S
H281       C1212   1.084       .  S
N282        H285   1.045       .  S
N282       H1222   1.046       .  S
H286       N1218   1.046       .  S
C287        C288   1.400       .  A
C287        C292   1.402       .  A
C287        H294   1.084       .  S
C288        C289   1.403       .  A
C289        C290   1.401       .  A
C289        N296   1.430       .  S
C290        C291   1.405       .  A
C290        H295   1.084       .  S
C291        C292   1.420       .  A
C292        N761   1.433       .  S
N293        C760   1.433       .  S
N293        H297   1.044       .  S
N293        H298   1.043       .  S
N296        H299   1.046       .  S
N296        H300   1.045       .  S
C301        C302   1.403       .  A
C301        C306   1.403       .  A
C301        H308   1.084       .  S
C302        C303   1.410       .  A
C303        C304   1.399       .  A
C303        N310   1.433       .  S
C304        C305   1.402       .  A
C304        H309   1.084       .  S
C305        C306   1.419       .  A
C306        N307   1.440       .  S
N307        H311   1.046       .  S
N307       H1248   1.042       .  S
N310        H313   1.046       .  S
N310        H314   1.046       .  S
H312       N1243   1.042       .  S
C315        C316   1.405       .  A
C315        C320   1.408       .  A
C315        H322   1.084       .  S
C316        C317   1.416       .  A
C317        C318   1.395       .  A
C317        N324   1.431       .  S
C318        C319   1.401       .  A
C318        H323   1.084       .  S
C319        C320   1.413       .  A
C320       N1257   1.438       .  S
N321       C1256   1.438   1_455  S
N321        H325   1.046       .  S
N321        H326   1.044       .  S
N324        H327   1.043       .  S
N324        H328   1.044       .  S
C329        C330   1.405       .  A
C329        C334   1.397       .  A
C329        H336   1.084       .  S
C330        C331   1.413       .  A
C331        C332   1.404       .  A
C331        N338   1.438       .  S
C332        C333   1.404       .  A
C332        H337   1.084       .  S
C333        C334   1.414       .  A
C334        N335   1.437       .  S
N335        H339   1.045       .  S
N335        H340   1.043       .  S
N338        H341   1.044       .  S
N338        H342   1.046       .  S
C343        C344   1.402       .  A
C343        C348   1.399       .  A
C343        H350   1.085       .  S
C344        C345   1.415       .  A
C345        C346   1.397       .  A
C345        N352   1.439       .  S
C346        C347   1.401       .  A
C346        H351   1.085       .  S
C347        C348   1.413       .  A
C348        N349   1.438       .  S
N349        H353   1.046   1_556  S
N349        H354   1.043   1_556  S
N352        H355   1.042       .  S
N352        H356   1.046       .  S
C357        C358   1.398       .  A
C357        C362   1.398       .  A
C357        H364   1.082       .  S
C358        C359   1.406       .  A
C359        C360   1.403       .  A
C359        N366   1.438       .  S
C360        C361   1.404       .  A
C360        H365   1.084       .  S
C361        C362   1.417       .  A
C362        N363   1.438       .  S
N363        H367   1.045       .  S
N363        H368   1.043       .  S
N366        H369   1.046       .  S
N366        H370   1.046       .  S
C371        C372   1.402       .  A
C371        C376   1.406       .  A
C371        H846   1.084       .  S
C372        C373   1.408       .  A
C373        C374   1.402       .  A
C373        N380   1.437       .  S
C374        C375   1.404       .  A
C374        H379   1.084       .  S
C375        C376   1.412       .  A
C376        N377   1.438       .  S
N377        H382   1.046       .  S
N377        H849   1.046       .  S
H378        C839   1.084       .  S
N380        H383   1.045       .  S
N380        H384   1.046       .  S
H381        N845   1.046       .  S
C385        C386   1.403       .  A
C385        C390   1.397       .  A
C385        H392   1.084       .  S
C386        C387   1.411       .  A
C387        C388   1.405       .  A
C387        N394   1.438       .  S
C388        C389   1.403       .  A
C388        H393   1.084       .  S
C389        C390   1.415       .  A
C390        N391   1.437       .  S
N391        H395   1.045       .  S
N391        H396   1.043       .  S
N394        H397   1.045       .  S
N394        H398   1.046       .  S
C399        C400   1.401       .  A
C399        C404   1.395       .  A
C399        H406   1.084       .  S
C400        C401   1.409       .  A
C401        C402   1.407       .  A
C401        N408   1.437       .  S
C402        C403   1.403       .  A
C402        H407   1.084       .  S
C403        C404   1.412       .  A
C404        N405   1.433       .  S
N405        H409   1.045       .  S
N405        H410   1.046       .  S
N408        H411   1.045       .  S
N408        H412   1.046       .  S
C413        C414   1.404       .  A
C413        C418   1.406       .  A
C413        H420   1.084       .  S
C414        C415   1.411       .  A
C415        C416   1.395       .  A
C415        N422   1.432       .  S
C416        C417   1.399       .  A
C416        H421   1.084       .  S
C417        C418   1.410       .  A
C418        N419   1.432   1_545  S
N419        H423   1.045       .  S
N419        H424   1.046       .  S
N422        H425   1.046       .  S
N422        H426   1.046       .  S
C427        C428   1.399       .  A
C427        C432   1.404       .  A
C427        H434   1.084       .  S
C428        C429   1.405       .  A
C429        C430   1.401       .  A
C429        N436   1.435       .  S
C430        C431   1.403       .  A
C430        H435   1.084       .  S
C431        C432   1.413       .  A
C432        N433   1.438       .  S
N433        H437   1.046       .  S
N433        H438   1.046   1_556  S
N436        H439   1.044       .  S
N436        H440   1.045       .  S
C441        C442   1.404       .  A
C441        C446   1.404       .  A
C441        H448   1.084       .  S
C442        C443   1.412       .  A
C443        C444   1.400       .  A
C443        N450   1.438       .  S
C444        C445   1.402       .  A
C444        H449   1.084       .  S
C445        C446   1.411       .  A
C446        N915   1.438       .  S
N447        C914   1.438   1_545  S
N447        H451   1.046       .  S
N447        H452   1.045       .  S
N450        H453   1.045       .  S
N450        H454   1.046       .  S
C455        C456   1.403       .  A
C455        C460   1.400       .  A
C455        H930   1.084       .  S
C456        C457   1.419       .  A
C457        C458   1.402       .  A
C457        N464   1.439       .  S
C458        C459   1.399       .  A
C458        H463   1.084       .  S
C459        C460   1.406       .  A
C460        N461   1.436       .  S
N461        H466   1.045       .  S
N461        H933   1.046       .  S
H462        C923   1.084       .  S
N464        H467   1.042   1_554  S
N464        H468   1.046       .  S
H465        N929   1.046       .  S
C469        C470   1.416       .  A
C469        C474   1.400   1_554  A
C469        C913   1.482       .  S
C470        C924   1.482       .  S
C471        C472   1.399       .  A
C471        H476   1.084       .  S
C472        C473   1.420       .  A
C472        C899   1.484       .  S
C473        C885   1.482       .  S
C474        H475   1.084       .  S
O477        V485   1.900       .  S
O477        C487   1.264       .  A
O478        V485   1.902       .  S
O478        C488   1.265       .  A
O479        V485   1.900       .  S
O479        C489   1.263       .  A
O480        V485   1.898       .  S
O480        C490   1.264       .  A
O481        V486   1.891       .  S
O481        C490   1.263       .  A
O482        V486   1.893       .  S
O482        C489   1.263       .  A
O483        V486   1.893       .  S
O483        C488   1.263       .  A
O484        V486   1.893       .  S
O484        C487   1.263       .  A
V485        V486   2.088       .  T
C487        C854   1.474       .  S
C488        C843   1.477       .  S
C489        C871   1.468       .  S
C490        C910   1.473       .  S
O491        V499   1.891       .  S
O491        C501   1.264       .  A
O492        V499   1.891       .  S
O492        C502   1.262       .  A
O493        V499   1.894       .  S
O493        C503   1.262       .  A
O494        V499   1.893       .  S
O494        C504   1.262       .  A
O495        V500   1.899       .  S
O495        C504   1.263       .  A
O496        V500   1.900       .  S
O496        C503   1.263       .  A
O497        V500   1.900       .  S
O497        C502   1.264       .  A
O498        V500   1.901       .  S
O498        C501   1.265       .  A
V499        V500   2.087       .  T
C501        C798   1.478       .  S
C502        C812   1.464       .  S
C503        C896   1.463       .  S
C504        C826   1.461       .  S
O505        V513   1.892       .  S
O505        C515   1.263       .  A
O506        V513   1.885       .  S
O506        C516   1.261       .  A
O507        V513   1.897       .  S
O507        C517   1.264       .  A
O508        V513   1.898       .  S
O508        C518   1.264       .  A
O509        V514   1.904       .  S
O509        C518   1.264       .  A
O510        V514   1.902       .  S
O510        C517   1.265       .  A
O511        V514   1.909       .  S
O511        C516   1.267       .  A
O512        V514   1.904       .  S
O512        C515   1.266       .  A
V513        V514   2.086       .  T
C515        C770   1.479       .  S
C516        C882   1.476       .  S
C517        C784   1.483       .  S
C518        C756   1.471       .  S
O519        V527   1.902       .  S
O519        C529   1.264       .  A
O520        V527   1.901       .  S
O520        C530   1.264       .  A
O521        V527   1.904       .  S
O521        C531   1.264       .  A
O522        V527   1.902       .  S
O522        C532   1.265       .  A
O523        V528   1.896       .  S
O523        C532   1.263       .  A
O524        V528   1.891       .  S
O524        C531   1.261       .  A
O525        V528   1.897       .  S
O525        C530   1.265       .  A
O526        V528   1.894       .  S
O526        C529   1.262       .  A
V527        V528   2.088       .  T
C529        C927   1.465       .  S
C530        C742   1.480       .  S
C531        C717   1.463       .  S
C532        C731   1.477       .  S
C533        C534   1.421       .  A
C533       C1474   1.405       .  A
C533        C787   1.487       .  S
C534        C535   1.403       .  A
C534        C700   1.490       .  S
C535       C1472   1.401   1_556  A
C535        H540   1.084       .  S
C536       C1471   1.401   1_554  A
C536        C537   1.412       .  A
C536        C728   1.480       .  S
C537        C538   1.401   1_554  A
C537        C686   1.481       .  S
C538       C1469   1.405   1_455  A
C538        H539   1.083   1_455  S
C541        C542   1.416       .  A
C541        C546   1.401       .  A
C541        C773   1.484       .  S
C542        C543   1.402       .  A
C542        C672   1.486       .  S
C543       C1480   1.404       .  A
C543        H548   1.084       .  S
C544       C1479   1.404       .  A
C544        C545   1.419       .  A
C544        C745   1.484       .  S
C545       C1482   1.402   1_455  A
C545        C658   1.491       .  S
C546       C1481   1.402       .  A
C546       H1483   1.084       .  S
H547       C1482   1.084       .  S
O549        V557   1.900       .  S
O549        C559   1.264       .  A
O550        V557   1.898       .  S
O550        C560   1.264       .  A
O551        V557   1.896       .  S
O551        C561   1.263       .  A
O552        V557   1.896       .  S
O552        C562   1.264       .  A
O553        V558   1.906       .  S
O553        C562   1.265       .  A
O554        V558   1.903       .  S
O554        C561   1.265       .  A
O555        V558   1.902       .  S
O555        C560   1.264       .  A
O556        V558   1.902       .  S
O556        C559   1.264       .  A
V557        V558   2.083       .  T
C559        C630   1.471       .  S
C560        C661   1.469       .  S
C561        C647   1.471       .  S
C562        C689   1.473       .  S
O563        V571   1.905       .  S
O563        C573   1.264       .  A
O564        V571   1.906       .  S
O564        C574   1.265       .  A
O565        V571   1.907       .  S
O565        C575   1.265       .  A
O566        V571   1.906       .  S
O566        C576   1.266       .  A
O567        V572   1.896       .  S
O567        C576   1.263       .  A
O568        V572   1.895       .  S
O568        C575   1.262       .  A
O569        V572   1.902       .  S
O569        C574   1.265       .  A
O570        V572   1.896       .  S
O570        C573   1.262       .  A
V571        V572   2.088       .  T
C573        C675   1.469       .  S
C574        C605   1.481       .  S
C575        C703   1.471       .  S
C576        C616   1.486       .  S
C577        C578   1.420       .  A
C577        C582   1.402       .  A
C577        C633   1.493       .  S
C578        C579   1.404       .  A
C578        C857   1.480       .  S
C579        C580   1.400   1_554  A
C579        H584   1.084   1_554  S
C580        C581   1.411       .  A
C580        C602   1.488       .  S
C581        C582   1.399   1_556  A
C581        C815   1.473       .  S
C582        H583   1.083       .  S
C585        C586   1.411       .  A
C585        C590   1.395       .  A
C585        C644   1.478       .  S
C586        C587   1.404       .  A
C586        C868   1.477       .  S
C587        C588   1.405       .  A
C587        H592   1.084       .  S
C588        C589   1.418       .  A
C588        C619   1.489       .  S
C589        C590   1.398       .  A
C589        C829   1.478       .  S
C590        H591   1.085       .  S
C593        C594   1.413       .  A
C593        C598   1.395   1_565  A
C593        C714   1.477       .  S
C594        C595   1.401       .  A
C594        C840   1.482       .  S
C595        H600   1.083       .  S
C596        C597   1.422       .  A
C596        C759   1.492       .  S
C597        C801   1.482       .  S
C598        H599   1.085       .  S
C601        C602   1.402       .  A
C601        C606   1.402       .  A
C601        H608   1.084       .  S
C602        C603   1.416       .  A
C603        C604   1.405       .  A
C603        N610   1.439       .  S
C604        C605   1.405       .  A
C604        H609   1.084       .  S
C605        C606   1.419       .  A
C606        N607   1.440       .  S
N607        H611   1.046       .  S
N607        H612   1.042       .  S
N610        H613   1.043       .  S
N610        H614   1.046       .  S
C615        C616   1.407       .  A
C615        C620   1.406       .  A
C615        H622   1.084       .  S
C616        C617   1.419       .  A
C617        C618   1.398       .  A
C617        N624   1.433       .  S
C618        C619   1.402       .  A
C618        H623   1.084       .  S
C619        C620   1.408       .  A
C620        N621   1.432       .  S
N621        H625   1.046       .  S
N621        H626   1.045       .  S
N624        H627   1.045       .  S
N624        H628   1.046       .  S
C629        C630   1.401       .  A
C629        C634   1.398       .  A
C629        H636   1.084       .  S
C630        C631   1.415       .  A
C631        C632   1.401       .  A
C631        N638   1.439       .  S
C632        C633   1.406       .  A
C632        H637   1.083       .  S
C633        C634   1.417       .  A
C634        N635   1.433       .  S
N635        H639   1.043       .  S
N635        H640   1.044       .  S
N638        H641   1.043       .  S
N638        H642   1.046       .  S
C643        C644   1.401       .  A
C643        C648   1.401       .  A
C643        H650   1.084       .  S
C644        C645   1.415       .  A
C645        C646   1.400       .  A
C645        N652   1.439       .  S
C646        C647   1.402       .  A
C646        H651   1.084       .  S
C647        C648   1.417       .  A
C648        N649   1.439       .  S
N649        H653   1.046       .  S
N649        H654   1.043       .  S
N652        H655   1.043       .  S
N652        H656   1.046       .  S
C657        C658   1.406       .  A
C657        C662   1.404       .  A
C657        H664   1.082       .  S
C658        C659   1.415       .  A
C659        C660   1.406       .  A
C659        N666   1.438       .  S
C660        C661   1.401       .  A
C660        H665   1.084       .  S
C661        C662   1.407       .  A
C662        N663   1.438       .  S
N663        H667   1.046       .  S
N663        H668   1.045       .  S
N666        H669   1.045       .  S
N666        H670   1.046       .  S
C671        C672   1.404       .  A
C671        C676   1.402       .  A
C671        H678   1.084       .  S
C672        C673   1.417       .  A
C673        C674   1.400       .  A
C673       N1616   1.438       .  S
C674        C675   1.400       .  A
C674        H679   1.084       .  S
C675        C676   1.414       .  A
C676        N677   1.439       .  S
N677        H681   1.045       .  S
N677        H682   1.043       .  S
N680       C1609   1.438   1_455  S
N680        H683   1.043       .  S
N680        H684   1.045   1_455  S
C685        C686   1.401       .  A
C685        C690   1.400       .  A
C685        H692   1.084       .  S
C686        C687   1.415       .  A
C687        C688   1.403       .  A
C687        N694   1.438   1_455  S
C688        C689   1.403       .  A
C688        H693   1.084       .  S
C689        C690   1.417       .  A
C690        N691   1.439       .  S
N691        H695   1.046       .  S
N691        H696   1.042       .  S
N694        H697   1.043       .  S
N694        H698   1.045       .  S
C699        C700   1.404       .  A
C699        C704   1.403       .  A
C699        H706   1.084       .  S
C700        C701   1.411       .  A
C701        C702   1.405       .  A
C701        N708   1.437       .  S
C702        C703   1.402       .  A
C702        H707   1.084       .  S
C703        C704   1.415       .  A
C704        N705   1.438       .  S
N705        H709   1.045       .  S
N705        H710   1.043       .  S
N708        H711   1.045       .  S
N708        H712   1.046       .  S
C713        C714   1.403       .  A
C713        C718   1.405       .  A
C713        H720   1.084       .  S
C714        C715   1.405       .  A
C715        C716   1.400       .  A
C715        N722   1.432   1_565  S
C716        C717   1.400       .  A
C716        H721   1.080       .  S
C717        C718   1.408       .  A
C718        N719   1.438       .  S
N719        H723   1.046       .  S
N719        H724   1.046       .  S
N722        H725   1.045       .  S
N722        H726   1.046   1_545  S
C727        C728   1.400       .  A
C727        C732   1.405       .  A
C727        H734   1.083       .  S
C728        C729   1.406       .  A
C729        C730   1.403       .  A
C729        N736   1.432   1_455  S
C730        C731   1.404       .  A
C730        H735   1.084       .  S
C731        C732   1.414       .  A
C732        N733   1.438       .  S
N733        H737   1.046       .  S
N733        H738   1.045       .  S
N736        H739   1.045       .  S
N736        H740   1.045       .  S
C741        C742   1.404       .  A
C741        C746   1.398       .  A
C741        H748   1.084       .  S
C742        C743   1.413       .  A
C743        C744   1.407       .  A
C743        N750   1.438       .  S
C744        C745   1.403       .  A
C744       H1685   1.084       .  S
C745        C746   1.415       .  A
C746        N747   1.438       .  S
N747        H751   1.045       .  S
N747        H752   1.043       .  S
H749       C1680   1.084       .  S
N750        H753   1.045       .  S
N750       H1690   1.046       .  S
H754       N1686   1.046       .  S
C755        C756   1.400       .  A
C755        C760   1.402       .  A
C755        H762   1.084       .  S
C756        C757   1.403       .  A
C757        C758   1.401       .  A
C757        N764   1.430       .  S
C758        C759   1.405       .  A
C758        H763   1.084       .  S
C759        C760   1.420       .  A
N761        H765   1.044       .  S
N761        H766   1.043       .  S
N764        H767   1.046       .  S
N764        H768   1.045       .  S
C769        C770   1.403       .  A
C769        C774   1.403       .  A
C769        H776   1.084       .  S
C770        C771   1.410       .  A
C771        C772   1.399       .  A
C771        N778   1.433       .  S
C772        C773   1.402       .  A
C772        H777   1.084       .  S
C773        C774   1.419       .  A
C774        N775   1.440       .  S
N775        H779   1.046       .  S
N775       H1716   1.042       .  S
N778        H781   1.046       .  S
N778        H782   1.046       .  S
H780       N1711   1.042       .  S
C783        C784   1.405       .  A
C783        C788   1.408       .  A
C783        H790   1.084       .  S
C784        C785   1.416       .  A
C785        C786   1.395       .  A
C785        N792   1.431       .  S
C786        C787   1.401       .  A
C786        H791   1.084       .  S
C787        C788   1.413       .  A
C788       N1725   1.438       .  S
N789       C1724   1.438   1_455  S
N789        H793   1.046       .  S
N789        H794   1.044       .  S
N792        H795   1.043       .  S
N792        H796   1.044       .  S
C797        C798   1.405       .  A
C797        C802   1.397       .  A
C797        H804   1.084       .  S
C798        C799   1.413       .  A
C799        C800   1.404       .  A
C799        N806   1.438       .  S
C800        C801   1.404       .  A
C800        H805   1.084       .  S
C801        C802   1.414       .  A
C802        N803   1.437       .  S
N803        H807   1.045       .  S
N803        H808   1.043       .  S
N806        H809   1.044       .  S
N806        H810   1.046       .  S
C811        C812   1.402       .  A
C811        C816   1.399       .  A
C811        H818   1.085       .  S
C812        C813   1.415       .  A
C813        C814   1.397       .  A
C813        N820   1.439       .  S
C814        C815   1.401       .  A
C814        H819   1.085       .  S
C815        C816   1.413       .  A
C816        N817   1.438       .  S
N817        H821   1.046   1_556  S
N817        H822   1.043   1_556  S
N820        H823   1.042       .  S
N820        H824   1.046       .  S
C825        C826   1.398       .  A
C825        C830   1.398       .  A
C825        H832   1.082       .  S
C826        C827   1.406       .  A
C827        C828   1.403       .  A
C827        N834   1.438       .  S
C828        C829   1.404       .  A
C828        H833   1.084       .  S
C829        C830   1.417       .  A
C830        N831   1.438       .  S
N831        H835   1.045       .  S
N831        H836   1.043       .  S
N834        H837   1.046       .  S
N834        H838   1.046       .  S
C839        C840   1.402       .  A
C839        C844   1.406       .  A
C840        C841   1.408       .  A
C841        C842   1.402       .  A
C841        N848   1.437       .  S
C842        C843   1.404       .  A
C842        H847   1.084       .  S
C843        C844   1.412       .  A
C844        N845   1.438       .  S
N845        H850   1.046       .  S
N848        H851   1.045       .  S
N848        H852   1.046       .  S
C853        C854   1.403       .  A
C853        C858   1.397       .  A
C853        H860   1.084       .  S
C854        C855   1.411       .  A
C855        C856   1.405       .  A
C855        N862   1.438       .  S
C856        C857   1.403       .  A
C856        H861   1.084       .  S
C857        C858   1.415       .  A
C858        N859   1.437       .  S
N859        H863   1.045       .  S
N859        H864   1.043       .  S
N862        H865   1.045       .  S
N862        H866   1.046       .  S
C867        C868   1.401       .  A
C867        C872   1.395       .  A
C867        H874   1.084       .  S
C868        C869   1.409       .  A
C869        C870   1.407       .  A
C869        N876   1.437       .  S
C870        C871   1.403       .  A
C870        H875   1.084       .  S
C871        C872   1.412       .  A
C872        N873   1.433       .  S
N873        H877   1.045       .  S
N873        H878   1.046       .  S
N876        H879   1.045       .  S
N876        H880   1.046       .  S
C881        C882   1.404       .  A
C881        C886   1.406       .  A
C881        H888   1.084       .  S
C882        C883   1.411       .  A
C883        C884   1.395       .  A
C883        N890   1.432       .  S
C884        C885   1.399       .  A
C884        H889   1.084       .  S
C885        C886   1.410       .  A
C886        N887   1.432       .  S
N887        H891   1.045       .  S
N887        H892   1.046       .  S
N890        H893   1.046       .  S
N890        H894   1.046       .  S
C895        C896   1.399       .  A
C895        C900   1.404       .  A
C895        H902   1.084       .  S
C896        C897   1.405       .  A
C897        C898   1.401       .  A
C897        N904   1.435       .  S
C898        C899   1.403       .  A
C898        H903   1.084       .  S
C899        C900   1.413       .  A
C900        N901   1.438       .  S
N901        H905   1.046       .  S
N901        H906   1.046   1_556  S
N904        H907   1.044       .  S
N904        H908   1.045       .  S
C909        C910   1.404       .  A
C909        C914   1.404       .  A
C909        H916   1.084       .  S
C910        C911   1.412       .  A
C911        C912   1.400       .  A
C911        N918   1.438       .  S
C912        C913   1.402       .  A
C912        H917   1.084       .  S
C913        C914   1.411       .  A
N915        H919   1.046       .  S
N915        H920   1.045       .  S
N918        H921   1.045       .  S
N918        H922   1.046       .  S
C923        C924   1.403       .  A
C923        C928   1.400       .  A
C924        C925   1.419       .  A
C925        C926   1.402       .  A
C925        N932   1.439       .  S
C926        C927   1.399       .  A
C926        H931   1.084       .  S
C927        C928   1.406       .  A
C928        N929   1.436       .  S
N929        H934   1.045       .  S
N932        H935   1.042   1_554  S
N932        H936   1.046       .  S
C937        C938   1.416       .  A
C937        C942   1.400   1_554  A
C937       C1381   1.482       .  S
C938       C1407   1.396   1_554  A
C938       C1392   1.482       .  S
C939       C1406   1.396   1_556  A
C939        C940   1.399   1_565  A
C939        H944   1.084       .  S
C940        C941   1.420       .  A
C940       C1367   1.484       .  S
C941       C1410   1.399   1_545  A
C941       C1353   1.482       .  S
C942       C1409   1.399       .  A
C942        H943   1.084       .  S
O945        V953   1.900       .  S
O945        C955   1.264       .  A
O946        V953   1.902       .  S
O946        C956   1.265       .  A
O947        V953   1.900       .  S
O947        C957   1.263       .  A
O948        V953   1.898       .  S
O948        C958   1.264       .  A
O949        V954   1.891       .  S
O949        C958   1.263       .  A
O950        V954   1.893       .  S
O950        C957   1.263       .  A
O951        V954   1.893       .  S
O951        C956   1.263       .  A
O952        V954   1.893       .  S
O952        C955   1.263       .  A
V953        V954   2.088       .  T
C955       C1322   1.474       .  S
C956       C1311   1.477       .  S
C957       C1339   1.468       .  S
C958       C1378   1.473       .  S
O959        V967   1.891       .  S
O959        C969   1.264       .  A
O960        V967   1.891       .  S
O960        C970   1.262       .  A
O961        V967   1.894       .  S
O961        C971   1.262       .  A
O962        V967   1.893       .  S
O962        C972   1.262       .  A
O963        V968   1.899       .  S
O963        C972   1.263       .  A
O964        V968   1.900       .  S
O964        C971   1.263       .  A
O965        V968   1.900       .  S
O965        C970   1.264       .  A
O966        V968   1.901       .  S
O966        C969   1.265       .  A
V967        V968   2.087       .  T
C969       C1266   1.478       .  S
C970       C1280   1.464       .  S
C971       C1364   1.463       .  S
C972       C1294   1.461       .  S
O973        V981   1.892       .  S
O973        C983   1.263       .  A
O974        V981   1.885       .  S
O974        C984   1.261       .  A
O975        V981   1.897       .  S
O975        C985   1.264       .  A
O976        V981   1.898       .  S
O976        C986   1.264       .  A
O977        V982   1.904       .  S
O977        C986   1.264       .  A
O978        V982   1.902       .  S
O978        C985   1.265       .  A
O979        V982   1.909       .  S
O979        C984   1.267       .  A
O980        V982   1.904       .  S
O980        C983   1.266       .  A
V981        V982   2.086       .  T
C983       C1238   1.479       .  S
C984       C1350   1.476       .  S
C985       C1252   1.483       .  S
C986       C1224   1.471       .  S
O987        V995   1.902       .  S
O987        C997   1.264       .  A
O988        V995   1.901       .  S
O988        C998   1.264       .  A
O989        V995   1.904       .  S
O989        C999   1.264       .  A
O990        V995   1.902       .  S
O990       C1000   1.265       .  A
O991        V996   1.896       .  S
O991       C1000   1.263       .  A
O992        V996   1.891       .  S
O992        C999   1.261       .  A
O993        V996   1.897       .  S
O993        C998   1.265       .  A
O994        V996   1.894       .  S
O994        C997   1.262       .  A
V995        V996   2.088       .  T
C997       C1395   1.465       .  S
C998       C1210   1.480       .  S
C999       C1185   1.463       .  S
C1000      C1199   1.477       .  S
C1001      C1002   1.421       .  A
C1001      C1255   1.487       .  S
C1002      C1003   1.403   1_655  A
C1002      C1168   1.490       .  S
C1003      H1008   1.084       .  S
C1004      C1005   1.412       .  A
C1004      C1196   1.480       .  S
C1005      C1006   1.401   1_554  A
C1005      C1154   1.481       .  S
C1006      H1007   1.083       .  S
C1009      C1010   1.416       .  A
C1009      C1014   1.401       .  A
C1009      C1241   1.484       .  S
C1010      C1011   1.402   1_655  A
C1010      C1140   1.486       .  S
C1011      H1016   1.084       .  S
C1012      C1013   1.419       .  A
C1012      C1213   1.484       .  S
C1013      C1126   1.491       .  S
O1017      V1025   1.900       .  S
O1017      C1027   1.264       .  A
O1018      V1025   1.898       .  S
O1018      C1028   1.264       .  A
O1019      V1025   1.896       .  S
O1019      C1029   1.263       .  A
O1020      V1025   1.896       .  S
O1020      C1030   1.264       .  A
O1021      V1026   1.906       .  S
O1021      C1030   1.265       .  A
O1022      V1026   1.903       .  S
O1022      C1029   1.265       .  A
O1023      V1026   1.902       .  S
O1023      C1028   1.264       .  A
O1024      V1026   1.902       .  S
O1024      C1027   1.264       .  A
V1025      V1026   2.083       .  T
C1027      C1098   1.471       .  S
C1028      C1129   1.469       .  S
C1029      C1115   1.471       .  S
C1030      C1157   1.473       .  S
O1031      V1039   1.905       .  S
O1031      C1041   1.264       .  A
O1032      V1039   1.906       .  S
O1032      C1042   1.265       .  A
O1033      V1039   1.907       .  S
O1033      C1043   1.265       .  A
O1034      V1039   1.906       .  S
O1034      C1044   1.266       .  A
O1035      V1040   1.896       .  S
O1035      C1044   1.263       .  A
O1036      V1040   1.895       .  S
O1036      C1043   1.262       .  A
O1037      V1040   1.902       .  S
O1037      C1042   1.265       .  A
O1038      V1040   1.896       .  S
O1038      C1041   1.262       .  A
V1039      V1040   2.088       .  T
C1041      C1143   1.469       .  S
C1042      C1073   1.481       .  S
C1043      C1171   1.471       .  S
C1044      C1084   1.486       .  S
C1045      C1046   1.420       .  A
C1045      C1050   1.402       .  A
C1045      C1101   1.493       .  S
C1046      C1047   1.404       .  A
C1046      C1325   1.480       .  S
C1047      C1048   1.400   1_554  A
C1047      H1052   1.084   1_554  S
C1048      C1049   1.411       .  A
C1048      C1070   1.488       .  S
C1049      C1050   1.399   1_556  A
C1049      C1283   1.473       .  S
C1050      H1051   1.083       .  S
C1053      C1054   1.411       .  A
C1053      C1058   1.395       .  A
C1053      C1112   1.478       .  S
C1054      C1055   1.404       .  A
C1054      C1336   1.477       .  S
C1055      C1056   1.405       .  A
C1055      H1060   1.084       .  S
C1056      C1057   1.418       .  A
C1056      C1087   1.489       .  S
C1057      C1058   1.398       .  A
C1057      C1297   1.478       .  S
C1058      H1059   1.085       .  S
C1061      C1062   1.413       .  A
C1061      C1066   1.395       .  A
C1061      C1182   1.477       .  S
C1062      C1063   1.401       .  A
C1062      C1308   1.482       .  S
C1063      C1532   1.404       .  A
C1063      H1068   1.083       .  S
C1064      C1531   1.404   1_545  A
C1064      C1065   1.422       .  A
C1064      C1227   1.492       .  S
C1065      C1534   1.400       .  A
C1065      C1269   1.482       .  S
C1066      C1533   1.400       .  A
C1066      H1067   1.085       .  S
C1069      C1070   1.402       .  A
C1069      C1074   1.402       .  A
C1069      H1076   1.084       .  S
C1070      C1071   1.416       .  A
C1071      C1072   1.405       .  A
C1071      N1078   1.439       .  S
C1072      C1073   1.405       .  A
C1072      H1077   1.084       .  S
C1073      C1074   1.419       .  A
C1074      N1075   1.440       .  S
N1075      H1079   1.046       .  S
N1075      H1080   1.042       .  S
N1078      H1081   1.043       .  S
N1078      H1082   1.046       .  S
C1083      C1084   1.407       .  A
C1083      C1088   1.406       .  A
C1083      H1090   1.084       .  S
C1084      C1085   1.419       .  A
C1085      C1086   1.398       .  A
C1085      N1092   1.433       .  S
C1086      C1087   1.402       .  A
C1086      H1091   1.084       .  S
C1087      C1088   1.408       .  A
C1088      N1089   1.432       .  S
N1089      H1093   1.046       .  S
N1089      H1094   1.045       .  S
N1092      H1095   1.045       .  S
N1092      H1096   1.046       .  S
C1097      C1098   1.401       .  A
C1097      C1102   1.398       .  A
C1097      H1104   1.084       .  S
C1098      C1099   1.415       .  A
C1099      C1100   1.401       .  A
C1099      N1106   1.439       .  S
C1100      C1101   1.406       .  A
C1100      H1105   1.083       .  S
C1101      C1102   1.417       .  A
C1102      N1103   1.433       .  S
N1103      H1107   1.043       .  S
N1103      H1108   1.044       .  S
N1106      H1109   1.043       .  S
N1106      H1110   1.046       .  S
C1111      C1112   1.401       .  A
C1111      C1116   1.401       .  A
C1111      H1118   1.084       .  S
C1112      C1113   1.415       .  A
C1113      C1114   1.400       .  A
C1113      N1120   1.439       .  S
C1114      C1115   1.402       .  A
C1114      H1119   1.084       .  S
C1115      C1116   1.417       .  A
C1116      N1117   1.439       .  S
N1117      H1121   1.046       .  S
N1117      H1122   1.043       .  S
N1120      H1123   1.043       .  S
N1120      H1124   1.046       .  S
C1125      C1126   1.406       .  A
C1125      C1130   1.404       .  A
C1125      H1132   1.082       .  S
C1126      C1127   1.415       .  A
C1127      C1128   1.406       .  A
C1127      N1134   1.438       .  S
C1128      C1129   1.401       .  A
C1128      H1133   1.084       .  S
C1129      C1130   1.407       .  A
C1130      N1131   1.438       .  S
N1131      H1135   1.046       .  S
N1131      H1136   1.045       .  S
N1134      H1137   1.045       .  S
N1134      H1138   1.046       .  S
C1139      C1140   1.404       .  A
C1139      C1144   1.402       .  A
C1139      H1146   1.084       .  S
C1140      C1141   1.417       .  A
C1141      C1142   1.400       .  A
C1142      C1143   1.400       .  A
C1142      H1147   1.084       .  S
C1143      C1144   1.414       .  A
C1144      N1145   1.439       .  S
N1145      H1149   1.046       .  S
N1145      H1150   1.043       .  S
N1148      H1151   1.043       .  S
N1148      H1152   1.045       .  S
C1153      C1154   1.401       .  A
C1153      C1158   1.400       .  A
C1153      H1160   1.084       .  S
C1154      C1155   1.415       .  A
C1155      C1156   1.403       .  A
C1155      N1162   1.438       .  S
C1156      C1157   1.403       .  A
C1156      H1161   1.084       .  S
C1157      C1158   1.417       .  A
C1158      N1159   1.439       .  S
N1159      H1163   1.046       .  S
N1159      H1164   1.042       .  S
N1162      H1165   1.043       .  S
N1162      H1166   1.045       .  S
C1167      C1168   1.404       .  A
C1167      C1172   1.403       .  A
C1167      H1174   1.084       .  S
C1168      C1169   1.411       .  A
C1169      C1170   1.405       .  A
C1169      N1176   1.437       .  S
C1170      C1171   1.402       .  A
C1170      H1175   1.084       .  S
C1171      C1172   1.415       .  A
C1172      N1173   1.438       .  S
N1173      H1177   1.045       .  S
N1173      H1178   1.043       .  S
N1176      H1179   1.045   1_655  S
N1176      H1180   1.046       .  S
C1181      C1182   1.403       .  A
C1181      C1186   1.405       .  A
C1181      H1188   1.084       .  S
C1182      C1183   1.405       .  A
C1183      C1184   1.400       .  A
C1183      N1190   1.432       .  S
C1184      C1185   1.400       .  A
C1184      H1189   1.080       .  S
C1185      C1186   1.408       .  A
C1186      N1187   1.438       .  S
N1187      H1191   1.046       .  S
N1187      H1192   1.046       .  S
N1190      H1193   1.045       .  S
N1190      H1194   1.046       .  S
C1195      C1196   1.400       .  A
C1195      C1200   1.405       .  A
C1195      H1202   1.083       .  S
C1196      C1197   1.406       .  A
C1197      C1198   1.403       .  A
C1197      N1204   1.432       .  S
C1198      C1199   1.404       .  A
C1198      H1203   1.084       .  S
C1199      C1200   1.414       .  A
C1200      N1201   1.438       .  S
N1201      H1205   1.046       .  S
N1201      H1206   1.045       .  S
N1204      H1207   1.045       .  S
N1204      H1208   1.045       .  S
C1209      C1210   1.404       .  A
C1209      C1214   1.398       .  A
C1209      H1216   1.084       .  S
C1210      C1211   1.413       .  A
C1211      C1212   1.407       .  A
C1211      N1218   1.438       .  S
C1212      C1213   1.403       .  A
C1213      C1214   1.415       .  A
C1214      N1215   1.438       .  S
N1215      H1219   1.045       .  S
N1215      H1220   1.043       .  S
N1218      H1221   1.045       .  S
C1223      C1224   1.400       .  A
C1223      C1228   1.402       .  A
C1223      H1230   1.084       .  S
C1224      C1225   1.403       .  A
C1225      C1226   1.401       .  A
C1225      N1232   1.430       .  S
C1226      C1227   1.405       .  A
C1226      H1231   1.084       .  S
C1227      C1228   1.420       .  A
C1228      N1697   1.433       .  S
N1229      C1696   1.433       .  S
N1229      H1233   1.044       .  S
N1229      H1234   1.043       .  S
N1232      H1235   1.046       .  S
N1232      H1236   1.045       .  S
C1237      C1238   1.403       .  A
C1237      C1242   1.403       .  A
C1237      H1244   1.084       .  S
C1238      C1239   1.410       .  A
C1239      C1240   1.399       .  A
C1239      N1246   1.433       .  S
C1240      C1241   1.402       .  A
C1240      H1245   1.084       .  S
C1241      C1242   1.419       .  A
C1242      N1243   1.440   1_655  S
N1243      H1247   1.046       .  S
N1246      H1249   1.046       .  S
N1246      H1250   1.046       .  S
C1251      C1252   1.405       .  A
C1251      C1256   1.408       .  A
C1251      H1258   1.084       .  S
C1252      C1253   1.416       .  A
C1253      C1254   1.395       .  A
C1253      N1260   1.431       .  S
C1254      C1255   1.401       .  A
C1254      H1259   1.084       .  S
C1255      C1256   1.413       .  A
N1257      H1261   1.046       .  S
N1257      H1262   1.044       .  S
N1260      H1263   1.043       .  S
N1260      H1264   1.044       .  S
C1265      C1266   1.405       .  A
C1265      C1270   1.397       .  A
C1265      H1272   1.084       .  S
C1266      C1267   1.413       .  A
C1267      C1268   1.404       .  A
C1267      N1274   1.438       .  S
C1268      C1269   1.404       .  A
C1268      H1273   1.084       .  S
C1269      C1270   1.414       .  A
C1270      N1271   1.437       .  S
N1271      H1275   1.045       .  S
N1271      H1276   1.043       .  S
N1274      H1277   1.044       .  S
N1274      H1278   1.046       .  S
C1279      C1280   1.402       .  A
C1279      C1284   1.399       .  A
C1279      H1286   1.085       .  S
C1280      C1281   1.415       .  A
C1281      C1282   1.397       .  A
C1281      N1288   1.439       .  S
C1282      C1283   1.401       .  A
C1282      H1287   1.085       .  S
C1283      C1284   1.413       .  A
C1284      N1285   1.438       .  S
N1285      H1289   1.046   1_556  S
N1285      H1290   1.043   1_556  S
N1288      H1291   1.042       .  S
N1288      H1292   1.046       .  S
C1293      C1294   1.398       .  A
C1293      C1298   1.398       .  A
C1293      H1300   1.082       .  S
C1294      C1295   1.406       .  A
C1295      C1296   1.403       .  A
C1295      N1302   1.438       .  S
C1296      C1297   1.404       .  A
C1296      H1301   1.084       .  S
C1297      C1298   1.417       .  A
C1298      N1299   1.438       .  S
N1299      H1303   1.045       .  S
N1299      H1304   1.043       .  S
N1302      H1305   1.046       .  S
N1302      H1306   1.046       .  S
C1307      C1308   1.402       .  A
C1307      C1312   1.406       .  A
C1307      H1782   1.084       .  S
C1308      C1309   1.408       .  A
C1309      C1310   1.402       .  A
C1309      N1316   1.437       .  S
C1310      C1311   1.404       .  A
C1310      H1315   1.084       .  S
C1311      C1312   1.412       .  A
C1312      N1313   1.438       .  S
N1313      H1785   1.046       .  S
N1313      H1318   1.046       .  S
H1314      C1775   1.084       .  S
N1316      H1319   1.045       .  S
N1316      H1320   1.046       .  S
H1317      N1781   1.046       .  S
C1321      C1322   1.403       .  A
C1321      C1326   1.397       .  A
C1321      H1328   1.084       .  S
C1322      C1323   1.411       .  A
C1323      C1324   1.405       .  A
C1323      N1330   1.438       .  S
C1324      C1325   1.403       .  A
C1324      H1329   1.084       .  S
C1325      C1326   1.415       .  A
C1326      N1327   1.437       .  S
N1327      H1331   1.045       .  S
N1327      H1332   1.043       .  S
N1330      H1333   1.045       .  S
N1330      H1334   1.046       .  S
C1335      C1336   1.401       .  A
C1335      C1340   1.395       .  A
C1335      H1342   1.084       .  S
C1336      C1337   1.409       .  A
C1337      C1338   1.407       .  A
C1337      N1344   1.437       .  S
C1338      C1339   1.403       .  A
C1338      H1343   1.084       .  S
C1339      C1340   1.412       .  A
C1340      N1341   1.433       .  S
N1341      H1345   1.045       .  S
N1341      H1346   1.046       .  S
N1344      H1347   1.045       .  S
N1344      H1348   1.046       .  S
C1349      C1350   1.404       .  A
C1349      C1354   1.406       .  A
C1349      H1356   1.084       .  S
C1350      C1351   1.411       .  A
C1351      C1352   1.395       .  A
C1351      N1358   1.432       .  S
C1352      C1353   1.399       .  A
C1352      H1357   1.084       .  S
C1353      C1354   1.410       .  A
C1354      N1355   1.432   1_545  S
N1355      H1359   1.045       .  S
N1355      H1360   1.046       .  S
N1358      H1361   1.046       .  S
N1358      H1362   1.046       .  S
C1363      C1364   1.399       .  A
C1363      C1368   1.404       .  A
C1363      H1370   1.084       .  S
C1364      C1365   1.405       .  A
C1365      C1366   1.401       .  A
C1365      N1372   1.435       .  S
C1366      C1367   1.403       .  A
C1366      H1371   1.084       .  S
C1367      C1368   1.413       .  A
C1368      N1369   1.438       .  S
N1369      H1373   1.046       .  S
N1369      H1374   1.046   1_556  S
N1372      H1375   1.044       .  S
N1372      H1376   1.045       .  S
C1377      C1378   1.404       .  A
C1377      C1382   1.404       .  A
C1377      H1384   1.084       .  S
C1378      C1379   1.412       .  A
C1379      C1380   1.400       .  A
C1379      N1386   1.438       .  S
C1380      C1381   1.402       .  A
C1380      H1385   1.084       .  S
C1381      C1382   1.411       .  A
C1382      N1851   1.438       .  S
N1383      C1850   1.438   1_545  S
N1383      H1387   1.046       .  S
N1383      H1388   1.045       .  S
N1386      H1389   1.045       .  S
N1386      H1390   1.046       .  S
C1391      C1392   1.403       .  A
C1391      C1396   1.400       .  A
C1391      H1866   1.084       .  S
C1392      C1393   1.419       .  A
C1393      C1394   1.402       .  A
C1393      N1400   1.439       .  S
C1394      C1395   1.399       .  A
C1394      H1399   1.084       .  S
C1395      C1396   1.406       .  A
C1396      N1397   1.436       .  S
N1397      H1869   1.046       .  S
N1397      H1402   1.045       .  S
H1398      C1859   1.084       .  S
N1400      H1403   1.042   1_554  S
N1400      H1404   1.046       .  S
H1401      N1865   1.046       .  S
C1405      C1406   1.416       .  A
C1405      C1410   1.400   1_554  A
C1405      C1849   1.482       .  S
C1406      C1860   1.482       .  S
C1407      C1408   1.399       .  A
C1407      H1412   1.084       .  S
C1408      C1409   1.420       .  A
C1408      C1835   1.484       .  S
C1409      C1821   1.482       .  S
C1410      H1411   1.084       .  S
O1413      V1421   1.900       .  S
O1413      C1423   1.264       .  A
O1414      V1421   1.902       .  S
O1414      C1424   1.265       .  A
O1415      V1421   1.900       .  S
O1415      C1425   1.263       .  A
O1416      V1421   1.898       .  S
O1416      C1426   1.264       .  A
O1417      V1422   1.892       .  S
O1417      C1426   1.263       .  A
O1418      V1422   1.893       .  S
O1418      C1425   1.263       .  A
O1419      V1422   1.893       .  S
O1419      C1424   1.263       .  A
O1420      V1422   1.893       .  S
O1420      C1423   1.263       .  A
V1421      V1422   2.088       .  T
C1423      C1790   1.474       .  S
C1424      C1779   1.477       .  S
C1425      C1807   1.468       .  S
C1426      C1846   1.473       .  S
O1427      V1435   1.891       .  S
O1427      C1437   1.264       .  A
O1428      V1435   1.891       .  S
O1428      C1438   1.262       .  A
O1429      V1435   1.894       .  S
O1429      C1439   1.262       .  A
O1430      V1435   1.893       .  S
O1430      C1440   1.262       .  A
O1431      V1436   1.899       .  S
O1431      C1440   1.263       .  A
O1432      V1436   1.900       .  S
O1432      C1439   1.263       .  A
O1433      V1436   1.900       .  S
O1433      C1438   1.264       .  A
O1434      V1436   1.901       .  S
O1434      C1437   1.265       .  A
V1435      V1436   2.087       .  T
C1437      C1734   1.478       .  S
C1438      C1748   1.464       .  S
C1439      C1832   1.463       .  S
C1440      C1762   1.461       .  S
O1441      V1449   1.892       .  S
O1441      C1451   1.263       .  A
O1442      V1449   1.885       .  S
O1442      C1452   1.261       .  A
O1443      V1449   1.897       .  S
O1443      C1453   1.264       .  A
O1444      V1449   1.898       .  S
O1444      C1454   1.264       .  A
O1445      V1450   1.904       .  S
O1445      C1454   1.264       .  A
O1446      V1450   1.902       .  S
O1446      C1453   1.265       .  A
O1447      V1450   1.909       .  S
O1447      C1452   1.267       .  A
O1448      V1450   1.904       .  S
O1448      C1451   1.266       .  A
V1449      V1450   2.086       .  T
C1451      C1706   1.479       .  S
C1452      C1818   1.476       .  S
C1453      C1720   1.483       .  S
C1454      C1692   1.471       .  S
O1455      V1463   1.902       .  S
O1455      C1465   1.264       .  A
O1456      V1463   1.901       .  S
O1456      C1466   1.264       .  A
O1457      V1463   1.904       .  S
O1457      C1467   1.264       .  A
O1458      V1463   1.902       .  S
O1458      C1468   1.265       .  A
O1459      V1464   1.896       .  S
O1459      C1468   1.263       .  A
O1460      V1464   1.891       .  S
O1460      C1467   1.261       .  A
O1461      V1464   1.897       .  S
O1461      C1466   1.265       .  A
O1462      V1464   1.894       .  S
O1462      C1465   1.262       .  A
V1463      V1464   2.088       .  T
C1465      C1863   1.465       .  S
C1466      C1678   1.480       .  S
C1467      C1653   1.463       .  S
C1468      C1667   1.477       .  S
C1469      C1470   1.421       .  A
C1469      C1723   1.487       .  S
C1470      C1471   1.403   1_655  A
C1470      C1636   1.490       .  S
C1471      H1476   1.084       .  S
C1472      C1473   1.412       .  A
C1472      C1664   1.480       .  S
C1473      C1474   1.401   1_554  A
C1473      C1622   1.481       .  S
C1474      H1475   1.083       .  S
C1477      C1478   1.416       .  A
C1477      C1482   1.401       .  A
C1477      C1709   1.484       .  S
C1478      C1479   1.402   1_655  A
C1478      C1608   1.486       .  S
C1479      H1484   1.084       .  S
C1480      C1481   1.419       .  A
C1480      C1681   1.484       .  S
C1481      C1594   1.491       .  S
O1485      V1493   1.900       .  S
O1485      C1495   1.264       .  A
O1486      V1493   1.898       .  S
O1486      C1496   1.264       .  A
O1487      V1493   1.896       .  S
O1487      C1497   1.263       .  A
O1488      V1493   1.896       .  S
O1488      C1498   1.264       .  A
O1489      V1494   1.906       .  S
O1489      C1498   1.265       .  A
O1490      V1494   1.903       .  S
O1490      C1497   1.265       .  A
O1491      V1494   1.902       .  S
O1491      C1496   1.264       .  A
O1492      V1494   1.902       .  S
O1492      C1495   1.264       .  A
V1493      V1494   2.083       .  T
C1495      C1566   1.471       .  S
C1496      C1597   1.469       .  S
C1497      C1583   1.471       .  S
C1498      C1625   1.473       .  S
O1499      V1507   1.905       .  S
O1499      C1509   1.264       .  A
O1500      V1507   1.906       .  S
O1500      C1510   1.265       .  A
O1501      V1507   1.907       .  S
O1501      C1511   1.265       .  A
O1502      V1507   1.906       .  S
O1502      C1512   1.266       .  A
O1503      V1508   1.896       .  S
O1503      C1512   1.263       .  A
O1504      V1508   1.895       .  S
O1504      C1511   1.262       .  A
O1505      V1508   1.902       .  S
O1505      C1510   1.265       .  A
O1506      V1508   1.896       .  S
O1506      C1509   1.262       .  A
V1507      V1508   2.088       .  T
C1509      C1611   1.469       .  S
C1510      C1541   1.481       .  S
C1511      C1639   1.471       .  S
C1512      C1552   1.486       .  S
C1513      C1514   1.420       .  A
C1513      C1518   1.402       .  A
C1513      C1569   1.493       .  S
C1514      C1515   1.404       .  A
C1514      C1793   1.480       .  S
C1515      C1516   1.400   1_554  A
C1515      H1520   1.084   1_554  S
C1516      C1517   1.411       .  A
C1516      C1538   1.488       .  S
C1517      C1518   1.399   1_556  A
C1517      C1751   1.473       .  S
C1518      H1519   1.083       .  S
C1521      C1522   1.411       .  A
C1521      C1526   1.395       .  A
C1521      C1580   1.478       .  S
C1522      C1523   1.404       .  A
C1522      C1804   1.477       .  S
C1523      C1524   1.405       .  A
C1523      H1528   1.084       .  S
C1524      C1525   1.418       .  A
C1524      C1555   1.489       .  S
C1525      C1526   1.398       .  A
C1525      C1765   1.478       .  S
C1526      H1527   1.085       .  S
C1529      C1530   1.413       .  A
C1529      C1534   1.395   1_565  A
C1529      C1650   1.477       .  S
C1530      C1531   1.401       .  A
C1530      C1776   1.482       .  S
C1531      H1536   1.083       .  S
C1532      C1533   1.422       .  A
C1532      C1695   1.492       .  S
C1533      C1737   1.482       .  S
C1534      H1535   1.085       .  S
C1537      C1538   1.402       .  A
C1537      C1542   1.402       .  A
C1537      H1544   1.084       .  S
C1538      C1539   1.416       .  A
C1539      C1540   1.405       .  A
C1539      N1546   1.439       .  S
C1540      C1541   1.405       .  A
C1540      H1545   1.084       .  S
C1541      C1542   1.419       .  A
C1542      N1543   1.440       .  S
N1543      H1547   1.046       .  S
N1543      H1548   1.042       .  S
N1546      H1549   1.043       .  S
N1546      H1550   1.046       .  S
C1551      C1552   1.407       .  A
C1551      C1556   1.406       .  A
C1551      H1558   1.084       .  S
C1552      C1553   1.419       .  A
C1553      C1554   1.398       .  A
C1553      N1560   1.433       .  S
C1554      C1555   1.402       .  A
C1554      H1559   1.084       .  S
C1555      C1556   1.408       .  A
C1556      N1557   1.432       .  S
N1557      H1561   1.046       .  S
N1557      H1562   1.045       .  S
N1560      H1563   1.045       .  S
N1560      H1564   1.046       .  S
C1565      C1566   1.401       .  A
C1565      C1570   1.398       .  A
C1565      H1572   1.084       .  S
C1566      C1567   1.415       .  A
C1567      C1568   1.401       .  A
C1567      N1574   1.439       .  S
C1568      C1569   1.406       .  A
C1568      H1573   1.083       .  S
C1569      C1570   1.417       .  A
C1570      N1571   1.433       .  S
N1571      H1575   1.043       .  S
N1571      H1576   1.044       .  S
N1574      H1577   1.043       .  S
N1574      H1578   1.046       .  S
C1579      C1580   1.401       .  A
C1579      C1584   1.401       .  A
C1579      H1586   1.084       .  S
C1580      C1581   1.415       .  A
C1581      C1582   1.400       .  A
C1581      N1588   1.439       .  S
C1582      C1583   1.402       .  A
C1582      H1587   1.084       .  S
C1583      C1584   1.417       .  A
C1584      N1585   1.439       .  S
N1585      H1589   1.046       .  S
N1585      H1590   1.043       .  S
N1588      H1591   1.043       .  S
N1588      H1592   1.046       .  S
C1593      C1594   1.406       .  A
C1593      C1598   1.404       .  A
C1593      H1600   1.082       .  S
C1594      C1595   1.415       .  A
C1595      C1596   1.406       .  A
C1595      N1602   1.438       .  S
C1596      C1597   1.401       .  A
C1596      H1601   1.084       .  S
C1597      C1598   1.407       .  A
C1598      N1599   1.438       .  S
N1599      H1603   1.046       .  S
N1599      H1604   1.045       .  S
N1602      H1605   1.045       .  S
N1602      H1606   1.046       .  S
C1607      C1608   1.404       .  A
C1607      C1612   1.402       .  A
C1607      H1614   1.084       .  S
C1608      C1609   1.417       .  A
C1609      C1610   1.400       .  A
C1610      C1611   1.400       .  A
C1610      H1615   1.084       .  S
C1611      C1612   1.414       .  A
C1612      N1613   1.439       .  S
N1613      H1617   1.045       .  S
N1613      H1618   1.043       .  S
N1616      H1619   1.043       .  S
N1616      H1620   1.045       .  S
C1621      C1622   1.401       .  A
C1621      C1626   1.400       .  A
C1621      H1628   1.084       .  S
C1622      C1623   1.415       .  A
C1623      C1624   1.403       .  A
C1623      N1630   1.438       .  S
C1624      C1625   1.403       .  A
C1624      H1629   1.084       .  S
C1625      C1626   1.417       .  A
C1626      N1627   1.439       .  S
N1627      H1631   1.046       .  S
N1627      H1632   1.042       .  S
N1630      H1633   1.044       .  S
N1630      H1634   1.045       .  S
C1635      C1636   1.404       .  A
C1635      C1640   1.403       .  A
C1635      H1642   1.084       .  S
C1636      C1637   1.411       .  A
C1637      C1638   1.405       .  A
C1637      N1644   1.437       .  S
C1638      C1639   1.402       .  A
C1638      H1643   1.084       .  S
C1639      C1640   1.415       .  A
C1640      N1641   1.438       .  S
N1641      H1645   1.045       .  S
N1641      H1646   1.043       .  S
N1644      H1647   1.045   1_655  S
N1644      H1648   1.046       .  S
C1649      C1650   1.403       .  A
C1649      C1654   1.405       .  A
C1649      H1656   1.084       .  S
C1650      C1651   1.405       .  A
C1651      C1652   1.400       .  A
C1651      N1658   1.432   1_565  S
C1652      C1653   1.400       .  A
C1652      H1657   1.080       .  S
C1653      C1654   1.408       .  A
C1654      N1655   1.438       .  S
N1655      H1659   1.046       .  S
N1655      H1660   1.046       .  S
N1658      H1661   1.045       .  S
N1658      H1662   1.046   1_545  S
C1663      C1664   1.400       .  A
C1663      C1668   1.405       .  A
C1663      H1670   1.083       .  S
C1664      C1665   1.406       .  A
C1665      C1666   1.403       .  A
C1665      N1672   1.432       .  S
C1666      C1667   1.404       .  A
C1666      H1671   1.084       .  S
C1667      C1668   1.414       .  A
C1668      N1669   1.438       .  S
N1669      H1673   1.046       .  S
N1669      H1674   1.045       .  S
N1672      H1675   1.045       .  S
N1672      H1676   1.045       .  S
C1677      C1678   1.404       .  A
C1677      C1682   1.398       .  A
C1677      H1684   1.084       .  S
C1678      C1679   1.413       .  A
C1679      C1680   1.407       .  A
C1679      N1686   1.438       .  S
C1680      C1681   1.403       .  A
C1681      C1682   1.415       .  A
C1682      N1683   1.438       .  S
N1683      H1687   1.045       .  S
N1683      H1688   1.043       .  S
N1686      H1689   1.045       .  S
C1691      C1692   1.400       .  A
C1691      C1696   1.402       .  A
C1691      H1698   1.084       .  S
C1692      C1693   1.403       .  A
C1693      C1694   1.401       .  A
C1693      N1700   1.430       .  S
C1694      C1695   1.405       .  A
C1694      H1699   1.084       .  S
C1695      C1696   1.420       .  A
N1697      H1701   1.044       .  S
N1697      H1702   1.043       .  S
N1700      H1703   1.046       .  S
N1700      H1704   1.045       .  S
C1705      C1706   1.403       .  A
C1705      C1710   1.403       .  A
C1705      H1712   1.084       .  S
C1706      C1707   1.410       .  A
C1707      C1708   1.399       .  A
C1707      N1714   1.433       .  S
C1708      C1709   1.402       .  A
C1708      H1713   1.084       .  S
C1709      C1710   1.419       .  A
C1710      N1711   1.440   1_655  S
N1711      H1715   1.046       .  S
N1714      H1717   1.046       .  S
N1714      H1718   1.046       .  S
C1719      C1720   1.405       .  A
C1719      C1724   1.408       .  A
C1719      H1726   1.084       .  S
C1720      C1721   1.416       .  A
C1721      C1722   1.395       .  A
C1721      N1728   1.431       .  S
C1722      C1723   1.401       .  A
C1722      H1727   1.084       .  S
C1723      C1724   1.413       .  A
N1725      H1729   1.046       .  S
N1725      H1730   1.044       .  S
N1728      H1731   1.043       .  S
N1728      H1732   1.044       .  S
C1733      C1734   1.405       .  A
C1733      C1738   1.397       .  A
C1733      H1740   1.084       .  S
C1734      C1735   1.413       .  A
C1735      C1736   1.404       .  A
C1735      N1742   1.438       .  S
C1736      C1737   1.404       .  A
C1736      H1741   1.084       .  S
C1737      C1738   1.414       .  A
C1738      N1739   1.437       .  S
N1739      H1743   1.045       .  S
N1739      H1744   1.043       .  S
N1742      H1745   1.044       .  S
N1742      H1746   1.046       .  S
C1747      C1748   1.402       .  A
C1747      C1752   1.399       .  A
C1747      H1754   1.085       .  S
C1748      C1749   1.415       .  A
C1749      C1750   1.397       .  A
C1749      N1756   1.439       .  S
C1750      C1751   1.401       .  A
C1750      H1755   1.085       .  S
C1751      C1752   1.413       .  A
C1752      N1753   1.438       .  S
N1753      H1757   1.046   1_556  S
N1753      H1758   1.043   1_556  S
N1756      H1759   1.042       .  S
N1756      H1760   1.046       .  S
C1761      C1762   1.398       .  A
C1761      C1766   1.398       .  A
C1761      H1768   1.082       .  S
C1762      C1763   1.406       .  A
C1763      C1764   1.403       .  A
C1763      N1770   1.438       .  S
C1764      C1765   1.404       .  A
C1764      H1769   1.084       .  S
C1765      C1766   1.417       .  A
C1766      N1767   1.438       .  S
N1767      H1771   1.045       .  S
N1767      H1772   1.043       .  S
N1770      H1773   1.046       .  S
N1770      H1774   1.046       .  S
C1775      C1776   1.402       .  A
C1775      C1780   1.406       .  A
C1776      C1777   1.408       .  A
C1777      C1778   1.402       .  A
C1777      N1784   1.437       .  S
C1778      C1779   1.404       .  A
C1778      H1783   1.084       .  S
C1779      C1780   1.412       .  A
C1780      N1781   1.438       .  S
N1781      H1786   1.046       .  S
N1784      H1787   1.045       .  S
N1784      H1788   1.045       .  S
C1789      C1790   1.403       .  A
C1789      C1794   1.397       .  A
C1789      H1796   1.084       .  S
C1790      C1791   1.411       .  A
C1791      C1792   1.405       .  A
C1791      N1798   1.438       .  S
C1792      C1793   1.403       .  A
C1792      H1797   1.084       .  S
C1793      C1794   1.415       .  A
C1794      N1795   1.437       .  S
N1795      H1799   1.045       .  S
N1795      H1800   1.043       .  S
N1798      H1801   1.045       .  S
N1798      H1802   1.046       .  S
C1803      C1804   1.401       .  A
C1803      C1808   1.395       .  A
C1803      H1810   1.084       .  S
C1804      C1805   1.409       .  A
C1805      C1806   1.407       .  A
C1805      N1812   1.437       .  S
C1806      C1807   1.403       .  A
C1806      H1811   1.084       .  S
C1807      C1808   1.412       .  A
C1808      N1809   1.433       .  S
N1809      H1813   1.045       .  S
N1809      H1814   1.046       .  S
N1812      H1815   1.045       .  S
N1812      H1816   1.046       .  S
C1817      C1818   1.404       .  A
C1817      C1822   1.406       .  A
C1817      H1824   1.084       .  S
C1818      C1819   1.411       .  A
C1819      C1820   1.395       .  A
C1819      N1826   1.432       .  S
C1820      C1821   1.399       .  A
C1820      H1825   1.084       .  S
C1821      C1822   1.410       .  A
C1822      N1823   1.432       .  S
N1823      H1827   1.045       .  S
N1823      H1828   1.046       .  S
N1826      H1829   1.046       .  S
N1826      H1830   1.046       .  S
C1831      C1832   1.399       .  A
C1831      C1836   1.404       .  A
C1831      H1838   1.084       .  S
C1832      C1833   1.405       .  A
C1833      C1834   1.401       .  A
C1833      N1840   1.435       .  S
C1834      C1835   1.403       .  A
C1834      H1839   1.084       .  S
C1835      C1836   1.413       .  A
C1836      N1837   1.438       .  S
N1837      H1841   1.046       .  S
N1837      H1842   1.046   1_556  S
N1840      H1843   1.044       .  S
N1840      H1844   1.045       .  S
C1845      C1846   1.404       .  A
C1845      C1850   1.404       .  A
C1845      H1852   1.084       .  S
C1846      C1847   1.412       .  A
C1847      C1848   1.400       .  A
C1847      N1854   1.438       .  S
C1848      C1849   1.402       .  A
C1848      H1853   1.084       .  S
C1849      C1850   1.411       .  A
N1851      H1855   1.046       .  S
N1851      H1856   1.045       .  S
N1854      H1857   1.045       .  S
N1854      H1858   1.046       .  S
C1859      C1860   1.403       .  A
C1859      C1864   1.400       .  A
C1860      C1861   1.419       .  A
C1861      C1862   1.402       .  A
C1861      N1868   1.439       .  S
C1862      C1863   1.399       .  A
C1862      H1867   1.084       .  S
C1863      C1864   1.406       .  A
C1864      N1865   1.436       .  S
N1865      H1870   1.045       .  S
N1868      H1871   1.042   1_554  S
N1868      H1872   1.046       .  S
