geometry optimzed in LAMMPS
_audit_creation_date              2020-12-01 
_audit_creation_method            'lammps2cif' 
_symmetry_space_group_name_H-M    'P1' 
_symmetry_Int_Tables_number       1 
_symmetry_cell_setting            triclinic 
loop_ 
_symmetry_equiv_pos_as_xyz 
  x,y,z 
_cell_length_a                    46.00345726 
_cell_length_b                    45.61600586928191 
_cell_length_c                    35.24236604471905 
_cell_angle_alpha                 90.00051372846602 
_cell_angle_beta                  90.17976363524515 
_cell_angle_gamma                 88.79592521804092 
loop_ 
_atom_site_label 
_atom_site_type_symbol 
_atom_site_fract_x 
_atom_site_fract_y 
_atom_site_fract_z 
_atom_site_charge 
O1          O  0.94579950  0.95993608  0.21715115    -0.81500
O2          O  0.04009696  0.05469749  0.17641263    -0.66200
O3          O  0.99916971  0.98362806  0.19476987    -1.12800
C4          C  0.01762239  0.00955730  0.32435946     1.05400
O5          O  0.07434528  0.03873215  0.21568873    -0.79400
O6          O  0.07149176  0.99454530  0.26544210    -0.67000
Ni7        Ni  0.96158884  0.97855892  0.17304620     1.34900
C8          C  0.06267075  0.96890772  0.25872777     0.84100
O9          O  0.01713987  0.01425117  0.13006239    -0.79900
O10         O  0.97292127  0.99507118  0.12525436    -0.90200
C11         C  0.06591407  0.05576352  0.18915063     0.83700
O12         O  0.94617916  0.01511424  0.19046246    -0.68400
O13         O  0.03618379  0.02743596  0.31138778    -0.87700
C14         C  0.95670652  0.04049617  0.18753599     0.84500
C15         C  0.99551610  0.00590074  0.11039394     1.06100
H16         H  0.00475584  0.03870603  0.24522542     0.37900
O17         O  0.01855220  0.02343294  0.23810559    -1.10400
O18         O  0.03654661  0.96368409  0.24949802    -0.67000
Ni19       Ni  0.00104756  0.98699294  0.24902284     1.26300
O20         O  0.98362305  0.04461453  0.18138683    -0.67200
O21         O  0.00338675  0.99198818  0.30332975    -0.79500
C22         C  0.95750841  0.94455763  0.24333396     0.83900
O23         O  0.98210219  0.95070959  0.25725270    -0.66700
Ni24       Ni  0.05400478  0.03272401  0.26265230     1.27400
Ni25       Ni  0.01834990  0.01964317  0.18407920     1.26100
H26         H  0.01151263  0.96750752  0.18640541     0.38400
O27         O  0.93422823  0.96034113  0.71185613    -0.81500
O28         O  0.02627751  0.05827355  0.67675269    -0.66200
O29         O  0.98704302  0.98644446  0.69451381    -1.12800
C30         C  0.99825510  0.01704729  0.82418545     1.05400
O31         O  0.05852978  0.04446458  0.71980710    -0.79400
O32         O  0.05387361  0.00323107  0.77337557    -0.67000
Ni33       Ni  0.95135472  0.97954710  0.66891048     1.34900
C34         C  0.04766962  0.97705985  0.76497219     0.84100
O35         O  0.00852643  0.01517862  0.63103756    -0.79900
O36         O  0.96473507  0.99609933  0.62159598    -0.90200
C37         C  0.05130847  0.06025895  0.69154483     0.83700
O38         O  0.93363691  0.01564566  0.68447962    -0.68400
O39         O  0.01458268  0.03695584  0.81121058    -0.87700
C40         C  0.94331250  0.04139772  0.68148918     0.84500
C41         C  0.98860021  0.00610607  0.60914639     1.06100
H42         H  0.98714402  0.04289410  0.74247728     0.37900
O43         O  0.00214406  0.02824726  0.73759932    -1.10400
O44         O  0.02302193  0.97005579  0.75163928    -0.67000
Ni45       Ni  0.98618261  0.99116468  0.74874543     1.26300
O46         O  0.97022837  0.04631140  0.67643354    -0.67200
O47         O  0.98673346  0.99729823  0.80333583    -0.79500
C48         C  0.94455371  0.94669295  0.74060018     0.83900
O49         O  0.96799888  0.95425306  0.75687177    -0.66700
Ni50       Ni  0.03539587  0.04039914  0.76469964     1.27400
Ni51       Ni  0.00552815  0.02272017  0.68417641     1.26100
H52         H  0.00035317  0.97060935  0.68786905     0.38400
O53         O  0.23062458  0.31623697  0.11480487    -0.81500
O54         O  0.31680949  0.21254350  0.07508316    -0.66200
O55         O  0.24771858  0.25994647  0.08978991    -1.12800
C56         C  0.26702576  0.23900756  0.22047810     1.05400
O57         O  0.29862209  0.17965374  0.11380844    -0.79400
O58         O  0.25271068  0.18620249  0.16029445    -0.67000
Ni59       Ni  0.24313423  0.29784826  0.06819465     1.34900
C60         C  0.22799747  0.19682965  0.15090434     0.84100
O61         O  0.27896590  0.23995609  0.02630628    -0.79900
O62         O  0.25440841  0.28288713  0.01939934    -0.90200
C63         C  0.31715064  0.18672102  0.08890273     0.83700
O64         O  0.28129753  0.31105927  0.07816174    -0.68400
O65         O  0.28478867  0.21907800  0.20880073    -0.87700
C66         C  0.30601073  0.29829588  0.08006469     0.84500
C67         C  0.26730699  0.26019852  0.00572936     1.06100
H68         H  0.29979227  0.24964822  0.14340825     0.37900
O69         O  0.28445998  0.23693851  0.13518278    -1.10400
O70         O  0.22411860  0.22354654  0.14132761    -0.67000
Ni71       Ni  0.24859235  0.25753289  0.14386166     1.26300
O72         O  0.30930073  0.27045861  0.07995200    -0.67200
O73         O  0.25093272  0.25446622  0.19824800    -0.79500
C74         C  0.21230931  0.30699258  0.13872373     0.83900
O75         O  0.21347188  0.28050812  0.14986041    -0.66700
Ni76       Ni  0.29134649  0.20063610  0.16039512     1.27400
Ni77       Ni  0.28280416  0.23772889  0.08079383     1.26100
H78         H  0.23176410  0.24856264  0.08033998     0.38400
O79         O  0.20889185  0.31787216  0.61380110    -0.81500
O80         O  0.29616900  0.21451345  0.56931143    -0.66200
O81         O  0.22827709  0.26144532  0.59162174    -1.12800
C82         C  0.25785084  0.24127361  0.71969412     1.05400
O83         O  0.28218547  0.18124357  0.61022659    -0.79400
O84         O  0.23850481  0.18814167  0.65981375    -0.67000
Ni85       Ni  0.22264495  0.29883462  0.56814411     1.34900
C86         C  0.21349676  0.19957555  0.65404299     0.84100
O87         O  0.25518221  0.23966607  0.52583546    -0.79900
O88         O  0.23465432  0.28429561  0.51897282    -0.90200
C89         C  0.29856596  0.18890466  0.58322098     0.83700
O90         O  0.26049191  0.31237092  0.57907128    -0.68400
O91         O  0.27334953  0.22046649  0.70572169    -0.87700
C92         C  0.28517583  0.29950040  0.57751299     0.84500
C93         C  0.24565400  0.26069138  0.50523248     1.06100
H94         H  0.28470111  0.25133276  0.63865046     0.37900
O95         O  0.26859670  0.23885357  0.63275638    -1.10400
O96         O  0.20925017  0.22664468  0.64710787    -0.67000
Ni97       Ni  0.23389809  0.26015011  0.64564911     1.26300
O98         O  0.28824715  0.27176407  0.57461898    -0.67200
O99         O  0.24084122  0.25774632  0.69979499    -0.79500
C100        C  0.19545473  0.30897127  0.64302018     0.83900
O101        O  0.19958240  0.28326868  0.65611928    -0.66700
Ni102      Ni  0.27709697  0.20234943  0.65703664     1.27400
Ni103      Ni  0.26252552  0.23888766  0.57914736     1.26100
H104        H  0.21162847  0.24995364  0.58479656     0.38400
O105        O  0.29541872  0.68919694  0.37996320    -0.81500
O106        O  0.21110259  0.79011763  0.33596675    -0.66200
O107        O  0.28092440  0.74569755  0.35571056    -1.12800
C108        C  0.25824926  0.77002497  0.48401807     1.05400
O109        O  0.22699328  0.82591382  0.37198120    -0.79400
O110        O  0.27508276  0.82091515  0.41559276    -0.67000
Ni111      Ni  0.28726424  0.70844466  0.33248532     1.34900
C112        C  0.30000195  0.80855524  0.41321760     0.84100
O113        O  0.24997190  0.76376396  0.29036997    -0.79900
O114        O  0.27956166  0.72439500  0.28269777    -0.90200
C115        C  0.20957646  0.81660676  0.34680634     0.83700
O116        O  0.24881570  0.69425440  0.33600518    -0.68400
O117        O  0.24428964  0.79176380  0.46943914    -0.87700
C118        C  0.22401572  0.70617149  0.34124029     0.84500
C119        C  0.26408721  0.74563101  0.26943502     1.06100
H120        H  0.22675260  0.75773027  0.40662368     0.37900
O121        O  0.24281588  0.76942790  0.39836812    -1.10400
O122        O  0.30358382  0.78080345  0.41088044    -0.67000
Ni123      Ni  0.27777279  0.74767273  0.41008115     1.26300
O124        O  0.22022017  0.73370922  0.34498534    -0.67200
O125        O  0.27252012  0.75097678  0.46436573    -0.79500
C126        C  0.31302630  0.69687693  0.40577434     0.83900
O127        O  0.31196197  0.72296312  0.41877772    -0.66700
Ni128      Ni  0.23641198  0.80721182  0.41979376     1.27400
Ni129      Ni  0.24567455  0.76692342  0.34442766     1.26100
H130        H  0.29682411  0.75775749  0.34779967     0.38400
O131        O  0.27779079  0.69214018  0.87898057    -0.81500
O132        O  0.19341459  0.79579685  0.83766347    -0.66200
O133        O  0.26150742  0.74858183  0.85428648    -1.12800
C134        C  0.24161904  0.76861044  0.98475760     1.05400
O135        O  0.20770149  0.82936886  0.87880826    -0.79400
O136        O  0.25510488  0.82228597  0.92384947    -0.67000
Ni137      Ni  0.26553978  0.71069868  0.83233987     1.34900
C138        C  0.27981781  0.81122846  0.91539830     0.84100
O139        O  0.23215013  0.76990327  0.79046175    -0.79900
O140        O  0.25454351  0.72591920  0.78333301    -0.90200
C141        C  0.19212192  0.82169018  0.85067465     0.83700
O142        O  0.22732515  0.69804207  0.84264051    -0.68400
O143        O  0.22409984  0.78885941  0.97320939    -0.87700
C144        C  0.20291310  0.71135576  0.84399011     0.84500
C145        C  0.24324659  0.74952488  0.76978680     1.06100
H146        H  0.20847392  0.75853824  0.90628383     0.37900
O147        O  0.22394629  0.77133616  0.89892999    -1.10400
O148        O  0.28375053  0.78437554  0.90687417    -0.67000
Ni149      Ni  0.25969031  0.75047898  0.90815836     1.26300
O150        O  0.20020279  0.73911104  0.84233676    -0.67200
O151        O  0.25712216  0.75285552  0.96242713    -0.79500
C152        C  0.29591182  0.70149590  0.90317240     0.83900
O153        O  0.29481209  0.72791375  0.91429561    -0.66700
Ni154      Ni  0.21658786  0.80747442  0.92479775     1.27400
Ni155      Ni  0.22701393  0.77119079  0.84466764     1.26100
H156        H  0.27779136  0.75974872  0.84550018     0.38400
O157        O  0.57472741  0.03075838  0.97348522    -0.81500
O158        O  0.47641373  0.93895152  0.94234858    -0.66200
O159        O  0.51922845  0.00880824  0.95790119    -1.12800
C160        C  0.51204060  0.97847911  0.08803797     1.05400
O161        O  0.44590448  0.95490195  0.98643279    -0.79400
O162        O  0.45405955  0.99662270  0.03944836    -0.67000
Ni163      Ni  0.55358915  0.01653736  0.92996927     1.34900
C164        C  0.46236157  0.02223516  0.03140617     0.84100
O165        O  0.49518083  0.98024587  0.89479232    -0.79900
O166        O  0.53573940  0.00504975  0.88277539    -0.90200
C167        C  0.45153530  0.93882034  0.95779995     0.83700
O168        O  0.57109697  0.97859119  0.93690110    -0.68400
O169        O  0.49263340  0.96083155  0.07664653    -0.87700
C170        C  0.56052261  0.95305176  0.93715964     0.84500
C171        C  0.51265400  0.99240623  0.87192994     1.06100
H172        H  0.51771661  0.95213613  0.00606301     0.37900
O173        O  0.50360265  0.96775523  0.00173186    -1.10400
O174        O  0.48728037  0.02712694  0.01764077    -0.67000
Ni175      Ni  0.52226981  0.00352056  0.01183626     1.26300
O176        O  0.53327215  0.94861967  0.93928677    -0.67200
O177        O  0.52438721  0.99683742  0.06609368    -0.79500
C178        C  0.56577914  0.04514313  0.00231179     0.83900
O179        O  0.54232745  0.03904887  0.01906445    -0.66700
Ni180      Ni  0.47033265  0.95825248  0.03066252     1.27400
Ni181      Ni  0.49908876  0.97333460  0.94829104     1.26100
H182        H  0.50584322  0.02493127  0.95261073     0.38400
O183        O  0.57675967  0.94980135  0.48821612    -0.81500
O184        O  0.47500002  0.03878275  0.51415036    -0.66200
O185        O  0.51947883  0.96781743  0.50350740    -1.12800
C186        C  0.51407325  0.99166977  0.37143214     1.05400
O187        O  0.44592110  0.02564166  0.46719979    -0.79400
O188        O  0.45501472  0.97923268  0.42070908    -0.67000
Ni189      Ni  0.55365098  0.95992683  0.53220948     1.34900
C190        C  0.46313195  0.95352512  0.43061826     0.84100
O191        O  0.49484413  0.99845623  0.56477843    -0.79900
O192        O  0.53291039  0.96823717  0.57846144    -0.90200
C193        C  0.45135871  0.04189622  0.49559868     0.83700
O194        O  0.56941966  0.99844208  0.53141344    -0.68400
O195        O  0.49451413  0.01064097  0.38046288    -0.87700
C196        C  0.55852763  0.02402101  0.52652839     0.84500
C197        C  0.51045361  0.98340061  0.58818009     1.06100
H198        H  0.51780142  0.02214850  0.45206729     0.37900
O199        O  0.50359854  0.00727148  0.45672076    -1.10400
O200        O  0.48822479  0.94774319  0.44440544    -0.67000
Ni201      Ni  0.52304934  0.97045029  0.44968122     1.26300
O202        O  0.53175466  0.02849165  0.51857496    -0.67200
O203        O  0.52602705  0.97403517  0.39525277    -0.79500
C204        C  0.56973085  0.93268749  0.46125451     0.83900
O205        O  0.54464608  0.93448054  0.44627025    -0.66700
Ni206      Ni  0.47141315  0.01732451  0.42510197     1.27400
Ni207      Ni  0.49849970  0.00375742  0.51058930     1.26100
H208        H  0.50636459  0.95221294  0.50946819     0.38400
O209        O  0.81184553  0.80087719  0.37258165    -0.81500
O210        O  0.71580606  0.70576165  0.40371007    -0.66200
O211        O  0.78520840  0.74784602  0.38655868    -1.12800
C212        C  0.75784856  0.73241735  0.25672474     1.05400
O213        O  0.73021774  0.67159976  0.36340782    -0.79400
O214        O  0.77585098  0.67657668  0.31649900    -0.67000
Ni215      Ni  0.78859318  0.78464269  0.41205604     1.34900
C216        C  0.80096884  0.68702501  0.32129003     0.84100
O217        O  0.75616608  0.72635361  0.45000843    -0.79900
O218        O  0.76766388  0.77307081  0.45695417    -0.90200
C219        C  0.71355523  0.68027308  0.38997616     0.83700
O220        O  0.75397915  0.80010135  0.38932614    -0.68400
O221        O  0.74278253  0.71141719  0.26933812    -0.87700
C222        C  0.72887047  0.78951564  0.39364036     0.84500
C223        C  0.75973743  0.74873880  0.47073124     1.06100
H224        H  0.72937752  0.74202851  0.33661445     0.37900
O225        O  0.74533863  0.72875683  0.34277245    -1.10400
O226        O  0.80502198  0.71402395  0.32813379    -0.67000
Ni227      Ni  0.78030646  0.74862898  0.33201664     1.26300
O228        O  0.72524838  0.76237903  0.40082382    -0.67200
O229        O  0.77383480  0.74840211  0.27775864    -0.79500
C230        C  0.82341679  0.79240389  0.34164882     0.83900
O231        O  0.81489097  0.77012786  0.32338654    -0.66700
Ni232      Ni  0.73730789  0.69293495  0.31738415     1.27400
Ni233      Ni  0.75016287  0.72746659  0.39638323     1.26100
H234        H  0.80165773  0.73545773  0.39352684     0.38400
O235        O  0.78778049  0.80675769  0.86109275    -0.81500
O236        O  0.70051036  0.70847881  0.90509833    -0.66200
O237        O  0.76984904  0.75119631  0.88444033    -1.12800
C238        C  0.74215342  0.73277865  0.75581230     1.05400
O239        O  0.71612739  0.67423734  0.86547628    -0.79400
O240        O  0.76005348  0.67860241  0.81552974    -0.67000
Ni241      Ni  0.77707797  0.78800509  0.90767001     1.34900
C242        C  0.78528237  0.68866006  0.82061035     0.84100
O243        O  0.74142212  0.73219825  0.95039789    -0.79900
O244        O  0.76793423  0.77274098  0.95676005    -0.90200
C245        C  0.69913178  0.68254384  0.89195651     0.83700
O246        O  0.73897477  0.80432709  0.90176086    -0.68400
O247        O  0.72604766  0.71280994  0.76927695    -0.87700
C248        C  0.71383278  0.79342526  0.90080150     0.84500
C249        C  0.75465429  0.75098457  0.97067817     1.06100
H250        H  0.71411214  0.74439137  0.83592987     0.37900
O251        O  0.72994668  0.73106427  0.84247210    -1.10400
O252        O  0.78964509  0.71542846  0.82841633    -0.67000
Ni253      Ni  0.76517848  0.75030227  0.83037802     1.26300
O254        O  0.70965411  0.76586497  0.89999836    -0.67200
O255        O  0.75882049  0.74844006  0.77632520    -0.79500
C256        C  0.80447873  0.79655981  0.83547052     0.83900
O257        O  0.80019984  0.77142822  0.82118823    -0.66700
Ni258      Ni  0.72159913  0.69490810  0.81826314     1.27400
Ni259      Ni  0.73480458  0.73118619  0.89643738     1.26100
H260        H  0.78595967  0.73837513  0.89147858     0.38400
O261        O  0.72301484  0.18136146  0.12793167    -0.81500
O262        O  0.80926531  0.27769852  0.17532564    -0.66200
O263        O  0.73978714  0.23587166  0.15500664    -1.12800
C264        C  0.76447480  0.25601199  0.02587623     1.05400
O265        O  0.79428128  0.31156287  0.13487085    -0.79400
O266        O  0.75036405  0.30904734  0.08475649    -0.67000
Ni267      Ni  0.73358126  0.19819314  0.17585206     1.34900
C268        C  0.72500630  0.30031239  0.09217722     0.84100
O269        O  0.76867630  0.25347761  0.22054483    -0.79900
O270        O  0.74312732  0.21202597  0.22562245    -0.90200
C271        C  0.81219536  0.30267857  0.16000477     0.83700
O272        O  0.77171108  0.18232504  0.16907302    -0.68400
O273        O  0.78292557  0.27401161  0.03887803    -0.87700
C274        C  0.79663367  0.19364036  0.16894035     0.84500
C275        C  0.75603954  0.23386540  0.24014835     1.06100
H276        H  0.79409254  0.24212485  0.10539633     0.37900
O277        O  0.77896596  0.25608536  0.11242182    -1.10400
O278        O  0.71977015  0.27420276  0.10230756    -0.67000
Ni279      Ni  0.74289521  0.23841220  0.10112232     1.26300
O280        O  0.80025128  0.22121995  0.16921787    -0.67200
O281        O  0.74719482  0.24168359  0.04694378    -0.79500
C282        C  0.70501709  0.19215296  0.10408456     0.83900
O283        O  0.70732806  0.21841276  0.09279437    -0.66700
Ni284      Ni  0.78830102  0.29165045  0.08774635     1.27400
Ni285      Ni  0.77483436  0.25553145  0.16665607     1.26100
H286        H  0.72377121  0.24826627  0.16338697     0.38400
O287        O  0.70459468  0.18030314  0.63635534    -0.81500
O288        O  0.79456534  0.27932823  0.67237356    -0.66200
O289        O  0.72488111  0.23623318  0.65481874    -1.12800
C290        C  0.75265594  0.25066583  0.52536781     1.05400
O291        O  0.77892703  0.31221647  0.63127650    -0.79400
O292        O  0.73541573  0.30635966  0.58109727    -0.67000
Ni293      Ni  0.71967465  0.19980826  0.68026340     1.34900
C294        C  0.70990554  0.29725363  0.58669782     0.84100
O295        O  0.75437136  0.25801121  0.71901922    -0.79900
O296        O  0.73330940  0.21482592  0.72803083    -0.90200
C297        C  0.79658431  0.30449038  0.65729996     0.83700
O298        O  0.75693804  0.18357820  0.66860469    -0.68400
O299        O  0.76934484  0.27032847  0.53825461    -0.87700
C300        C  0.78191785  0.19481348  0.66900274     0.84500
C301        C  0.74511342  0.23790982  0.74062834     1.06100
H302        H  0.78007812  0.24122938  0.60572688     0.37900
O303        O  0.76444586  0.25497739  0.61151783    -1.10400
O304        O  0.70480162  0.27091248  0.59651750    -0.67000
Ni305      Ni  0.72904731  0.23559174  0.60037733     1.26300
O306        O  0.78554863  0.22243081  0.67050583    -0.67200
O307        O  0.73521887  0.23609184  0.54607908    -0.79500
C308        C  0.69057446  0.18824399  0.60681846     0.83900
O309        O  0.69423272  0.21333511  0.59177325    -0.66700
Ni310      Ni  0.77362133  0.28998721  0.58558238     1.27400
Ni311      Ni  0.76010214  0.25680770  0.66524583     1.26100
H312        H  0.70863711  0.24892437  0.66154228     0.38400
O313        O  0.43677752  0.52929015  0.00598346    -0.81500
O314        O  0.53671190  0.44117811  0.03646925    -0.66200
O315        O  0.49320684  0.51239563  0.02409541    -1.12800
C316        C  0.50120519  0.48689640  0.89273862     1.05400
O317        O  0.56763580  0.45613199  0.99296833    -0.79400
O318        O  0.55942638  0.50099463  0.94354253    -0.67000
Ni319      Ni  0.45831543  0.51974451  0.05132466     1.34900
C320        C  0.55113376  0.52688021  0.95217426     0.84100
O321        O  0.51608090  0.48121131  0.08626410    -0.79900
O322        O  0.47780389  0.51136494  0.09872260    -0.90200
C323        C  0.56162321  0.43992363  0.02119433     0.83700
O324        O  0.44249720  0.48132969  0.04953612    -0.68400
O325        O  0.52098010  0.46851658  0.90329274    -0.87700
C326        C  0.45361500  0.45586428  0.04505673     0.84500
C327        C  0.50000226  0.49601404  0.10920075     1.06100
H328        H  0.49602637  0.45816193  0.97254155     0.37900
O329        O  0.51002305  0.47303414  0.97807840    -1.10400
O330        O  0.52586933  0.53272145  0.96543460    -0.67000
Ni331      Ni  0.49080696  0.50980632  0.96990584     1.26300
O332        O  0.48048533  0.45150198  0.03825660    -0.67200
O333        O  0.48886581  0.50533250  0.91528984    -0.79500
C334        C  0.44430502  0.54816668  0.98155880     0.83900
O335        O  0.46904177  0.54595549  0.96567566    -0.66700
Ni336      Ni  0.54325107  0.46296025  0.94899883     1.27400
Ni337      Ni  0.51371263  0.47628970  0.03200865     1.26100
H338        H  0.50620304  0.52799273  0.03070524     0.38400
O339        O  0.43853747  0.45514363  0.49499667    -0.81500
O340        O  0.53764512  0.54118473  0.46741897    -0.66200
O341        O  0.49500186  0.47116409  0.47814862    -1.12800
C342        C  0.50212124  0.49406116  0.61022650     1.05400
O343        O  0.56821478  0.52698361  0.51279068    -0.79400
O344        O  0.56108653  0.48022584  0.55806226    -0.67000
Ni345      Ni  0.46015874  0.46535130  0.45046596     1.34900
C346        C  0.55308890  0.45464853  0.54905970     0.84100
O347        O  0.51787826  0.50227248  0.41672061    -0.79900
O348        O  0.47944178  0.47417389  0.40356870    -0.90200
C349        C  0.56174118  0.54336503  0.48469073     0.83700
O350        O  0.44381813  0.50416017  0.45429739    -0.68400
O351        O  0.52192984  0.51176565  0.60069262    -0.87700
C352        C  0.45452540  0.52923334  0.45987387     0.84500
C353        C  0.50179031  0.48836227  0.39343932     1.06100
H354        H  0.49684014  0.52480852  0.53076119     0.37900
O355        O  0.51114065  0.50961231  0.52518486    -1.10400
O356        O  0.52757931  0.44944385  0.53684396    -0.67000
Ni357      Ni  0.49228229  0.47323999  0.53225672     1.26300
O358        O  0.48155821  0.53273111  0.46549676    -0.67200
O359        O  0.48978679  0.47683843  0.58680797    -0.79500
C360        C  0.44615746  0.43663693  0.52033081     0.83900
O361        O  0.47116041  0.43766387  0.53558428    -0.66700
Ni362      Ni  0.54386535  0.51860175  0.55552050     1.27400
Ni363      Ni  0.51515382  0.50675034  0.47114033     1.26100
H364        H  0.50814028  0.45522195  0.47140002     0.38400
O365        O  0.08258559  0.53947705  0.26133932    -0.81500
O366        O  0.98591237  0.45288058  0.21855287    -0.66200
O367        O  0.02791988  0.52259611  0.23757265    -1.12800
C368        C  0.01169379  0.49503324  0.36691880     1.05400
O369        O  0.95326485  0.46841409  0.25976982    -0.79400
O370        O  0.95765750  0.51130753  0.31167523    -0.67000
Ni371      Ni  0.06422758  0.52923879  0.21410930     1.34900
C372        C  0.96580516  0.53698622  0.30361766     0.84100
O373        O  0.00814256  0.49384670  0.17286318    -0.79900
O374        O  0.04861508  0.51999339  0.16469751    -0.90200
C375        C  0.96120049  0.45054906  0.23405880     0.83700
O376        O  0.08061053  0.49075321  0.21907307    -0.68400
O377        O  0.99384563  0.47658173  0.35370240    -0.87700
C378        C  0.06959834  0.46549856  0.21955218     0.84500
C379        C  0.02651484  0.50661870  0.15175052     1.06100
H380        H  0.02327682  0.46730436  0.28671113     0.37900
O381        O  0.00925690  0.48266989  0.28053084    -1.10400
O382        O  0.99143932  0.54235169  0.29240929    -0.67000
Ni383      Ni  0.02703561  0.51892325  0.29175680     1.26300
O384        O  0.04227627  0.46172916  0.22170079    -0.67200
O385        O  0.02502946  0.51361880  0.34630034    -0.79500
C386        C  0.07294912  0.55729324  0.28633898     0.83900
O387        O  0.04742991  0.55474152  0.29955909    -0.66700
Ni388      Ni  0.97456501  0.47294810  0.30604780     1.27400
Ni389      Ni  0.00819251  0.48732855  0.22654699     1.26100
H390        H  0.01525959  0.53872020  0.23007756     0.38400
O391        O  0.06713639  0.54368713  0.76451694    -0.81500
O392        O  0.97210185  0.45361293  0.71897769    -0.66200
O393        O  0.01347787  0.52420398  0.73762368    -1.12800
C394        C  0.99614368  0.49954795  0.86741154     1.05400
O395        O  0.93907227  0.46732413  0.76109452    -0.79400
O396        O  0.94179534  0.51209388  0.80985514    -0.67000
Ni397      Ni  0.05117427  0.52962602  0.71741897     1.34900
C398        C  0.94896927  0.53777245  0.80026892     0.84100
O399        O  0.99592213  0.49392951  0.67285923    -0.79900
O400        O  0.03855451  0.51694121  0.66814195    -0.90200
C401        C  0.94748864  0.45035186  0.73461211     0.83700
O402        O  0.06686276  0.49167346  0.72897911    -0.68400
O403        O  0.97889257  0.48018599  0.85501391    -0.87700
C404        C  0.05573155  0.46650254  0.72714015     0.84500
C405        C  0.01658922  0.50458156  0.65330983     1.06100
H406        H  0.00892986  0.47011285  0.78822140     0.37900
O407        O  0.99445656  0.48479780  0.78119346    -1.10400
O408        O  0.97460617  0.54386615  0.78979063    -0.67000
Ni409      Ni  0.01097275  0.52191231  0.79155957     1.26300
O410        O  0.02842383  0.46295422  0.72427367    -0.67200
O411        O  0.00841329  0.51817939  0.84596633    -0.79500
C412        C  0.05563034  0.56153166  0.78811301     0.83900
O413        O  0.02950016  0.55869718  0.79866565    -0.66700
Ni414      Ni  0.96013904  0.47428440  0.80710178     1.27400
Ni415      Ni  0.99421770  0.48844734  0.72690735     1.26100
H416        H  0.00128456  0.54025355  0.72859440     0.38400
C417        C  0.03893321  0.51260598  0.55051865    -0.11400
C418        C  0.01619233  0.49914308  0.53101621     0.05700
C419        C  0.99325192  0.48732315  0.55214275    -0.10200
C420        C  0.99312033  0.48903058  0.59186288    -0.11900
C421        C  0.01589557  0.50266062  0.61125003    -0.01600
C422        C  0.03875945  0.51440978  0.58998444    -0.10800
C423        C  0.01656354  0.49754335  0.48884328     0.05700
H424        H  0.97518765  0.47708614  0.53796795     0.07600
H425        H  0.97521299  0.47973612  0.60732286     0.11100
H426        H  0.05680595  0.52495797  0.60380942     0.11400
H427        H  0.05718885  0.52144119  0.53530817     0.07700
C428        C  0.02692627  0.52099559  0.46703059    -0.11500
C429        C  0.02667573  0.51974246  0.42735322    -0.10700
C430        C  0.01579936  0.49512764  0.40862646    -0.01700
C431        C  0.00615252  0.47138846  0.43044969    -0.11800
C432        C  0.00659206  0.47255630  0.47001868    -0.10200
H433        H  0.03446611  0.54073586  0.48058912     0.07700
H434        H  0.03396136  0.53848024  0.41138476     0.11400
H435        H  0.99779732  0.45196375  0.41692831     0.11100
H436        H  0.99908806  0.45385392  0.48586192     0.07700
C437        C  0.02175906  0.52430309  0.96472104    -0.11400
C438        C  0.01055878  0.50244855  0.98841530     0.05700
C439        C  0.99527200  0.47938036  0.97180433    -0.10200
C440        C  0.99089814  0.47838195  0.93260974    -0.11900
C441        C  0.00179251  0.50037432  0.90889370    -0.01600
C442        C  0.01745745  0.52326524  0.92539658    -0.10800
C443        C  0.01458715  0.50370940  0.03029718     0.05700
H444        H  0.98683784  0.46190247  0.98910351     0.07600
H445        H  0.97890490  0.46029372  0.92092136     0.11100
H446        H  0.02604721  0.54061971  0.90801373     0.11400
H447        H  0.03336846  0.54255187  0.97664660     0.07700
C448        C  0.04097433  0.51286787  0.04607879    -0.11500
C449        C  0.04474784  0.51395983  0.08543189    -0.10700
C450        C  0.02227158  0.50577709  0.11000160    -0.01700
C451        C  0.99590159  0.49654279  0.09423026    -0.11800
C452        C  0.99207430  0.49562399  0.05486730    -0.10200
H453        H  0.05890856  0.51877924  0.02799307     0.07700
H454        H  0.06545330  0.52090539  0.09659005     0.11400
H455        H  0.97809646  0.49022759  0.11230516     0.11100
H456        H  0.97131140  0.48889614  0.04367013     0.07700
C457        C  0.49649248  0.46352982  0.78970023    -0.11400
C458        C  0.48438047  0.48862589  0.77228975     0.05700
C459        C  0.47521738  0.51227568  0.79531298    -0.10200
C460        C  0.47930055  0.51130752  0.83476970    -0.11900
C461        C  0.49301501  0.48682205  0.85188433    -0.01600
C462        C  0.50087814  0.46268944  0.82892913    -0.10800
C463        C  0.48462948  0.49121021  0.73021607     0.05700
H464        H  0.46563565  0.53184355  0.78263662     0.07600
H465        H  0.47290622  0.53021001  0.85161213     0.11100
H466        H  0.51126885  0.44335956  0.84115907     0.11400
H467        H  0.50405061  0.44510561  0.77275259     0.07700
C468        C  0.49564710  0.51649571  0.71331395    -0.11500
C469        C  0.50030439  0.51762072  0.67423028    -0.10700
C470        C  0.49377966  0.49360879  0.65088188    -0.01700
C471        C  0.48125064  0.46884772  0.66741405    -0.11800
C472        C  0.47694451  0.46756877  0.70678843    -0.10200
H473        H  0.50210271  0.53490460  0.73057817     0.07700
H474        H  0.50977850  0.53712591  0.66239652     0.11400
H475        H  0.47596881  0.45001746  0.65019365     0.11100
H476        H  0.46827776  0.44783670  0.71907378     0.07700
C477        C  0.52236265  0.46861297  0.20704448    -0.11400
C478        C  0.51460054  0.49273118  0.23012096     0.05700
C479        C  0.50387917  0.51846664  0.21264157    -0.10200
C480        C  0.49981194  0.51965868  0.17330671    -0.11900
C481        C  0.50687604  0.49534403  0.15035385    -0.01600
C482        C  0.51880219  0.47000843  0.16752115    -0.10800
C483        C  0.51510070  0.49038572  0.27233091     0.05700
H484        H  0.49739417  0.53728974  0.22957167     0.07600
H485        H  0.49069174  0.53952737  0.16084337     0.11100
H486        H  0.52428671  0.45089225  0.15055488     0.11400
H487        H  0.53076825  0.44850427  0.21965809     0.07700
C488        C  0.50388936  0.46551147  0.29009880    -0.11500
C489        C  0.50054235  0.46464563  0.32949351    -0.10700
C490        C  0.50871758  0.48843202  0.35228785    -0.01700
C491        C  0.52146299  0.51268333  0.33485258    -0.11800
C492        C  0.52435702  0.51377157  0.29520713    -0.10200
H493        H  0.49635977  0.44724008  0.27337747     0.07700
H494        H  0.49090186  0.44551966  0.34211812     0.11400
H495        H  0.52797594  0.53131502  0.35167182     0.11100
H496        H  0.53330533  0.53314423  0.28233866     0.07700
C497        C  0.84196247  0.37286776  0.66346521    -0.11400
C498        C  0.86367739  0.36439550  0.68944466     0.05700
C499        C  0.86287728  0.33632279  0.70580725    -0.10200
C500        C  0.84094664  0.31684615  0.69583688    -0.11900
C501        C  0.81919700  0.32526272  0.66966491    -0.01600
C502        C  0.81989802  0.35359531  0.65381877    -0.10800
C503        C  0.88639581  0.38530397  0.70054859     0.05700
H504        H  0.87944534  0.32938313  0.72598222     0.07600
H505        H  0.84116878  0.29515512  0.70833118     0.11100
H506        H  0.80345133  0.36088362  0.63368250     0.11400
H507        H  0.84187717  0.39458048  0.65100691     0.07700
C508        C  0.90373883  0.39889094  0.67310275    -0.11500
C509        C  0.92454440  0.41938488  0.68395653    -0.10700
C510        C  0.92759245  0.42717071  0.72227921    -0.01700
C511        C  0.91022929  0.41350274  0.74955273    -0.11800
C512        C  0.89011184  0.39254057  0.73886487    -0.10200
H513        H  0.90115375  0.39360865  0.64333845     0.07700
H514        H  0.93753950  0.42978807  0.66242576     0.11400
H515        H  0.91222104  0.41910648  0.77930867     0.11100
H516        H  0.87685469  0.38252562  0.76044217     0.07700
C517        C  0.58950603  0.37841727  0.54916064    -0.11400
C518        C  0.61720587  0.38454210  0.56395501     0.05700
C519        C  0.62322438  0.41362865  0.57389034    -0.10200
C520        C  0.60248413  0.43602608  0.56874037    -0.11900
C521        C  0.57483903  0.43016127  0.55368402    -0.01600
C522        C  0.56853955  0.40100144  0.54402896    -0.10800
C523        C  0.64026145  0.36123571  0.56857220     0.05700
H524        H  0.64404166  0.41914688  0.58607802     0.07600
H525        H  0.60821524  0.45806455  0.57685244     0.11100
H526        H  0.54748621  0.39565060  0.53242408     0.11400
H527        H  0.58422716  0.35628133  0.54095570     0.07700
C528        C  0.63396095  0.33302775  0.58218053    -0.11500
C529        C  0.65635735  0.31201641  0.58819720    -0.10700
C530        C  0.68549017  0.31881454  0.58070174    -0.01700
C531        C  0.69150398  0.34687529  0.56644565    -0.11800
C532        C  0.66930398  0.36762999  0.56036359    -0.10200
H533        H  0.61182661  0.32742798  0.58897137     0.07700
H534        H  0.65090643  0.29060883  0.59899673     0.11400
H535        H  0.71353199  0.35296365  0.55976867     0.11100
H536        H  0.67496645  0.38881577  0.54902593     0.07700
C537        C  0.73887450  0.23200227  0.92835747    -0.11400
C538        C  0.75733629  0.24759028  0.90419627     0.05700
C539        C  0.77864821  0.26530159  0.92052190    -0.10200
C540        C  0.78124348  0.26762613  0.95992844    -0.11900
C541        C  0.76265302  0.25221417  0.98409102    -0.01600
C542        C  0.74152166  0.23425000  0.96779700    -0.10800
C543        C  0.75439508  0.24533060  0.86218832     0.05700
H544        H  0.79354224  0.27722201  0.90283634     0.07600
H545        H  0.79777024  0.28169331  0.97142343     0.11100
H546        H  0.72668913  0.22223837  0.98548970     0.11400
H547        H  0.72194141  0.21846899  0.91680510     0.07700
C548        C  0.74755360  0.21847596  0.84520373    -0.11500
C549        C  0.74448266  0.21626435  0.80589275    -0.10700
C550        C  0.74838383  0.24079138  0.78237538    -0.01700
C551        C  0.75554249  0.26762161  0.79921217    -0.11800
C552        C  0.75837835  0.26989766  0.83869429    -0.10200
H553        H  0.74492510  0.19897718  0.86226190     0.07700
H554        H  0.73932268  0.19513808  0.79389511     0.11400
H555        H  0.75862641  0.28693153  0.78193177     0.11100
H556        H  0.76327808  0.29102807  0.85084611     0.07700
C557        C  0.77579030  0.25620053  0.42290041    -0.11400
C558        C  0.75382762  0.24114887  0.40396129     0.05700
C559        C  0.73207546  0.22764665  0.42541714    -0.10200
C560        C  0.73196467  0.22985040  0.46507458    -0.11900
C561        C  0.75362597  0.24558238  0.48388340    -0.01600
C562        C  0.77570965  0.25838600  0.46228340    -0.10800
C563        C  0.75395332  0.23955077  0.36195919     0.05700
H564        H  0.71477809  0.21599246  0.41147871     0.07600
H565        H  0.71457757  0.21991790  0.48086615     0.11100
H566        H  0.79292225  0.27047177  0.47576827     0.11400
H567        H  0.79317440  0.26624951  0.40722558     0.07700
C568        C  0.76096618  0.26421739  0.34005894    -0.11500
C569        C  0.76204197  0.26244249  0.30047349    -0.10700
C570        C  0.75591991  0.23601156  0.28203232    -0.01700
C571        C  0.74881186  0.21140699  0.30401087    -0.11800
C572        C  0.74786230  0.21315827  0.34349473    -0.10200
H573        H  0.76538265  0.28498397  0.35356122     0.07700
H574        H  0.76727123  0.28181828  0.28432339     0.11400
H575        H  0.74417202  0.19061361  0.29070683     0.11100
H576        H  0.74285716  0.19370337  0.35961849     0.07700
C577        C  0.90133298  0.39544339  0.23884462    -0.11400
C578        C  0.90214876  0.38306004  0.20242393     0.05700
C579        C  0.92295107  0.39280309  0.17631812    -0.10200
C580        C  0.94251311  0.41456169  0.18650062    -0.11900
C581        C  0.94122371  0.42725294  0.22272063    -0.01600
C582        C  0.92052882  0.41742962  0.24878893    -0.10800
C583        C  0.88031975  0.36120375  0.19123225     0.05700
H584        H  0.92410547  0.38353385  0.14806311     0.07600
H585        H  0.95826519  0.42180380  0.16592839     0.11100
H586        H  0.91925347  0.42669814  0.27705132     0.11400
H587        H  0.88533512  0.38865666  0.25935456     0.07700
C588        C  0.87242212  0.33857501  0.21610562    -0.11500
C589        C  0.85059237  0.31904410  0.20599998    -0.10700
C590        C  0.83601584  0.32218177  0.17113398    -0.01700
C591        C  0.84425640  0.34456075  0.14618958    -0.11800
C592        C  0.86620715  0.36374701  0.15603872    -0.10200
H593        H  0.88313240  0.33602233  0.24334786     0.07700
H594        H  0.84474315  0.30192208  0.22566767     0.11400
H595        H  0.83363885  0.34732124  0.11890882     0.11100
H596        H  0.87158220  0.38112074  0.13649452     0.07700
C597        C  0.63593516  0.41029655  0.04775690    -0.11400
C598        C  0.62980519  0.38233590  0.06222125     0.05700
C599        C  0.60051082  0.37433365  0.06561093    -0.10200
C600        C  0.57808603  0.39346372  0.05354419    -0.11900
C601        C  0.58461876  0.42061103  0.03720880    -0.01600
C602        C  0.61368253  0.42894944  0.03485094    -0.10800
C603        C  0.65409125  0.36131298  0.07137127     0.05700
H604        H  0.59490562  0.35294096  0.07627188     0.07600
H605        H  0.55575267  0.38657424  0.05555188     0.11100
H606        H  0.61923403  0.44999383  0.02294495     0.11400
H607        H  0.65805842  0.41776243  0.04590188     0.07700
C608        C  0.67968089  0.36162695  0.04966752    -0.11500
C609        C  0.70269578  0.34228691  0.05745877    -0.10700
C610        C  0.70061296  0.32142834  0.08647536    -0.01700
C611        C  0.67502093  0.32053588  0.10805827    -0.11800
C612        C  0.65203778  0.34053715  0.10082606    -0.10200
H613        H  0.68184718  0.37644300  0.02591387     0.07700
H614        H  0.72192331  0.34307127  0.03984221     0.11400
H615        H  0.67293639  0.30462201  0.13064094     0.11100
H616        H  0.63280602  0.33980799  0.11838250     0.07700
C617        C  0.91002413  0.61244251  0.79580455    -0.11400
C618        C  0.88167827  0.60513779  0.80676315     0.05700
C619        C  0.87595909  0.57578882  0.81548639    -0.10200
C620        C  0.89775593  0.55422154  0.81301125    -0.11900
C621        C  0.92610498  0.56128079  0.80192242    -0.01600
C622        C  0.93203126  0.59069601  0.79330093    -0.10800
C623        C  0.85771759  0.62754429  0.80882759     0.05700
H624        H  0.85455234  0.56945123  0.82469498     0.07600
H625        H  0.89228254  0.53190229  0.82004461     0.11100
H626        H  0.95362017  0.59690424  0.78468101     0.11400
H627        H  0.91504951  0.63484944  0.78863525     0.07700
C628        C  0.86206641  0.65549715  0.82449825    -0.11500
C629        C  0.83869178  0.67558807  0.82827789    -0.10700
C630        C  0.81052958  0.66803614  0.81656157    -0.01700
C631        C  0.80648265  0.64030470  0.80022922    -0.11800
C632        C  0.82971878  0.62044614  0.79627651    -0.10200
H633        H  0.88334998  0.66154344  0.83466987     0.07700
H634        H  0.84257148  0.69681076  0.84086860     0.11400
H635        H  0.78525667  0.63386752  0.79027340     0.11100
H636        H  0.82571400  0.59938734  0.78330343     0.07700
C637        C  0.66532674  0.61005524  0.91722931    -0.11400
C638        C  0.63650331  0.61830085  0.92657585     0.05700
C639        C  0.62944432  0.64857066  0.92796881    -0.10200
C640        C  0.65019626  0.66968855  0.91885640    -0.11900
C641        C  0.67832334  0.66106749  0.90739924    -0.01600
C642        C  0.68571204  0.63104094  0.90727022    -0.10800
C643        C  0.61400099  0.59531304  0.93328624     0.05700
H644        H  0.60759010  0.65604537  0.93466372     0.07600
H645        H  0.64381163  0.69267522  0.91891958     0.11100
H646        H  0.70732652  0.62370374  0.89898564     0.11400
H647        H  0.67226147  0.58724900  0.91713174     0.07700
C648        C  0.61618576  0.56797757  0.91476439    -0.11500
C649        C  0.59587523  0.54614281  0.92115135    -0.10700
C650        C  0.57219086  0.55089946  0.94571214    -0.01700
C651        C  0.56933677  0.57838664  0.96357677    -0.11800
C652        C  0.59007905  0.60021734  0.95768408    -0.10200
H653        H  0.63344104  0.56335782  0.89471958     0.07700
H654        H  0.59861296  0.52547728  0.90631826     0.11400
H655        H  0.55138111  0.58283036  0.98266475     0.11100
H656        H  0.58754443  0.62073707  0.97281600     0.07700
C657        C  0.74319923  0.71912826  0.56908112    -0.11400
C658        C  0.74600520  0.74434433  0.59176200     0.05700
C659        C  0.75204538  0.77107686  0.57395492    -0.10200
C660        C  0.75609864  0.77243704  0.53474417    -0.11900
C661        C  0.75409987  0.74711718  0.51215325    -0.01600
C662        C  0.74715690  0.72050692  0.52971272    -0.10800
C663        C  0.74378025  0.74264187  0.63389424     0.05700
H664        H  0.75372683  0.79103471  0.59037192     0.07600
H665        H  0.76104429  0.79340943  0.52218651     0.11100
H666        H  0.74531771  0.70062840  0.51315549     0.11400
H667        H  0.73879101  0.69811210  0.58186287     0.07700
C668        C  0.72360349  0.72426068  0.65124021    -0.11500
C669        C  0.72263980  0.72161741  0.69076604    -0.10700
C670        C  0.74180102  0.73733254  0.71401934    -0.01700
C671        C  0.76146421  0.75629130  0.69670614    -0.11800
C672        C  0.76247633  0.75886100  0.65717119    -0.10200
H673        H  0.70855001  0.71185000  0.63425304     0.07700
H674        H  0.70705276  0.70693491  0.70305746     0.11400
H675        H  0.77660392  0.76864699  0.71363951     0.11100
H676        H  0.77855953  0.77294299  0.64481106     0.07700
C677        C  0.76688720  0.76854673  0.07455578    -0.11400
C678        C  0.75573179  0.74392003  0.09288336     0.05700
C679        C  0.74413347  0.72131823  0.07052586    -0.10200
C680        C  0.74360588  0.72344038  0.03085052    -0.11900
C681        C  0.75486165  0.74811405  0.01265515    -0.01600
C682        C  0.76655808  0.77056787  0.03507732    -0.10800
C683        C  0.75596484  0.74208503  0.13510641     0.05700
H684        H  0.73574022  0.70179451  0.08364577     0.07600
H685        H  0.73456824  0.70571102  0.01447164     0.11100
H686        H  0.77529288  0.79002767  0.02216889     0.11400
H687        H  0.77546939  0.78660952  0.09072594     0.07700
C688        C  0.77918569  0.75328448  0.15651160    -0.11500
C689        C  0.77942220  0.75123903  0.19617714    -0.10700
C690        C  0.75664233  0.73759716  0.21523809    -0.01700
C691        C  0.73320929  0.72692858  0.19391031    -0.11800
C692        C  0.73280897  0.72926172  0.15442924    -0.10200
H693        H  0.79757435  0.76300839  0.14259238     0.07700
H694        H  0.79786654  0.75942972  0.21179929     0.11400
H695        H  0.71513178  0.71655818  0.20777495     0.11100
H696        H  0.71424305  0.72108609  0.13907055     0.07700
C697        C  0.87890665  0.65716014  0.31382967    -0.11400
C698        C  0.87465556  0.62668861  0.31429205     0.05700
C699        C  0.84603848  0.61653633  0.31622511    -0.10200
C700        C  0.82237998  0.63612517  0.31839517    -0.11900
C701        C  0.82652636  0.66655870  0.31871972    -0.01600
C702        C  0.85509953  0.67689105  0.31619637    -0.10800
C703        C  0.89959566  0.60519081  0.31335038     0.05700
H704        H  0.84183371  0.59327413  0.31580348     0.07600
H705        H  0.80074881  0.62730705  0.32008294     0.11100
H706        H  0.85906192  0.70020901  0.31601391     0.11400
H707        H  0.90064137  0.66573778  0.31241637     0.07700
C708        C  0.92390284  0.60932100  0.28985313    -0.11500
C709        C  0.94601024  0.58763769  0.28727447    -0.10700
C710        C  0.94408313  0.56134855  0.30791312    -0.01700
C711        C  0.92034456  0.55783871  0.33237708    -0.11800
C712        C  0.89857144  0.57947530  0.33523494    -0.10200
H713        H  0.92536083  0.62883581  0.27253981     0.07700
H714        H  0.96407231  0.59100422  0.26824296     0.11400
H715        H  0.91847048  0.53815172  0.34930177     0.11100
H716        H  0.88069183  0.57590084  0.35448348     0.07700
C717        C  0.60390937  0.59370227  0.42103547    -0.11400
C718        C  0.62572301  0.60323092  0.44584998     0.05700
C719        C  0.62596430  0.59348894  0.48358092    -0.10200
C720        C  0.60509207  0.57401384  0.49610999    -0.11900
C721        C  0.58334302  0.56432631  0.47127801    -0.01600
C722        C  0.58271177  0.57458843  0.43373826    -0.10800
C723        C  0.64857361  0.62277802  0.43215809     0.05700
H724        H  0.64268006  0.60045217  0.50312106     0.07600
H725        H  0.60592211  0.56657788  0.52529066     0.11100
H726        H  0.56618461  0.56741855  0.41405535     0.11400
H727        H  0.60323389  0.60115531  0.39185957     0.07700
C728        C  0.66325617  0.61628067  0.39828349    -0.11500
C729        C  0.68480454  0.63469283  0.38507241    -0.10700
C730        C  0.69182239  0.66015668  0.40526994    -0.01700
C731        C  0.67725336  0.66655937  0.43935543    -0.11800
C732        C  0.65592908  0.64788421  0.45283109    -0.10200
H733        H  0.65816464  0.59682261  0.38216131     0.07700
H734        H  0.69563685  0.62922148  0.35868728     0.11400
H735        H  0.68227906  0.68600821  0.45552865     0.11100
H736        H  0.64479602  0.65330870  0.47902239     0.07700
C737        C  0.64134298  0.89213726  0.44689073    -0.11400
C738        C  0.63423592  0.87127354  0.41930630     0.05700
C739        C  0.60564393  0.87061649  0.40529963    -0.10200
C740        C  0.58459404  0.89078406  0.41848728    -0.11900
C741        C  0.59175285  0.91158935  0.44631005    -0.01600
C742        C  0.62036653  0.91197233  0.46032811    -0.10800
C743        C  0.65687706  0.85010094  0.40624880     0.05700
H744        H  0.59971097  0.85471062  0.38397356     0.07600
H745        H  0.56272204  0.88995089  0.40714631     0.11100
H746        H  0.62663251  0.92760999  0.48181893     0.11400
H747        H  0.66313583  0.89278641  0.45855494     0.07700
C748        C  0.68451365  0.86010561  0.39660345    -0.11500
C749        C  0.70743536  0.84027785  0.39008141    -0.10700
C750        C  0.70332331  0.80992631  0.39340376    -0.01700
C751        C  0.67516194  0.79984889  0.40074400    -0.11800
C752        C  0.65208554  0.81980419  0.40695399    -0.10200
H753        H  0.68861601  0.88338689  0.39543936     0.07700
H754        H  0.72872817  0.84886155  0.38424963     0.11400
H755        H  0.67122331  0.77661864  0.40341125     0.11100
H756        H  0.63093570  0.81159667  0.41443113     0.07700
C757        C  0.62578093  0.06847163  0.54736413    -0.11400
C758        C  0.61481763  0.09751690  0.54765025     0.05700
C759        C  0.58546232  0.10246277  0.53773332    -0.10200
C760        C  0.56724820  0.07878111  0.52974099    -0.11900
C761        C  0.57801727  0.04962244  0.53133502    -0.01600
C762        C  0.60771447  0.04495238  0.53945923    -0.10800
C763        C  0.63356081  0.12173148  0.56169890     0.05700
H764        H  0.57627233  0.12450749  0.53779117     0.07600
H765        H  0.54454019  0.08327638  0.52343256     0.11100
H766        H  0.61700552  0.02295894  0.54059433     0.11400
H767        H  0.64839411  0.06381778  0.55410760     0.07700
C768        C  0.65145331  0.11656138  0.59337759    -0.11500
C769        C  0.66951292  0.13820746  0.60729981    -0.10700
C770        C  0.67052493  0.16611925  0.59022751    -0.01700
C771        C  0.65239826  0.17169955  0.55861739    -0.11800
C772        C  0.63394872  0.14972964  0.54460827    -0.10200
H773        H  0.65129745  0.09565051  0.60792296     0.07700
H774        H  0.68281364  0.13279841  0.63181971     0.11400
H775        H  0.65246524  0.19290367  0.54482049     0.11100
H776        H  0.62035855  0.15445680  0.52013908     0.07700
C777        C  0.51375158  0.01228812  0.76746865    -0.11400
C778        C  0.49846828  0.98921682  0.75095172     0.05700
C779        C  0.48653350  0.96782501  0.77468066    -0.10200
C780        C  0.49013475  0.96935053  0.81419290    -0.11900
C781        C  0.50639935  0.99187260  0.83057176    -0.01600
C782        C  0.51791195  0.01345247  0.80674802    -0.10800
C783        C  0.49723846  0.98647151  0.70897669     0.05700
H784        H  0.47470501  0.94978270  0.76257323     0.07600
H785        H  0.48107902  0.95237898  0.83179642     0.11100
H786        H  0.53043223  0.03115778  0.81848230     0.11400
H787        H  0.52345230  0.02884939  0.74980271     0.07700
C788        C  0.48882116  0.01049211  0.68611884    -0.11500
C789        C  0.49134674  0.00897004  0.64649580    -0.10700
C790        C  0.50306171  0.98366074  0.62913988    -0.01700
C791        C  0.51040171  0.95928223  0.65198940    -0.11800
C792        C  0.50723804  0.96057380  0.69142453    -0.10200
H793        H  0.48099023  0.03068776  0.69903836     0.07700
H794        H  0.48561626  0.02809276  0.62963241     0.11400
H795        H  0.51935912  0.93941741  0.63939395     0.11100
H796        H  0.51405621  0.94183732  0.70838032     0.07700
C797        C  0.51267530  0.95755642  0.19241381    -0.11400
C798        C  0.52754928  0.98092923  0.20901844     0.05700
C799        C  0.53941308  0.00225967  0.18507501    -0.10200
C800        C  0.53555926  0.00082600  0.14562801    -0.11900
C801        C  0.51954632  0.97813667  0.12919419    -0.01600
C802        C  0.50868005  0.95620420  0.15308918    -0.10800
C803        C  0.52844910  0.98417350  0.25114000     0.05700
H804        H  0.55124654  0.02038824  0.19692993     0.07600
H805        H  0.54424797  0.01807493  0.12815760     0.11100
H806        H  0.49628483  0.93834609  0.14153113     0.11400
H807        H  0.50293773  0.94095296  0.20995793     0.07700
C808        C  0.52297676  0.01170386  0.26791331    -0.11500
C809        C  0.51967422  0.01431339  0.30722419    -0.10700
C810        C  0.52217684  0.98954633  0.33081388    -0.01700
C811        C  0.52942408  0.96229340  0.31441194    -0.11800
C812        C  0.53229315  0.95958928  0.27495273    -0.10200
H813        H  0.51969104  0.03104819  0.25049390     0.07700
H814        H  0.51425575  0.03562623  0.31910987     0.11400
H815        H  0.53136535  0.94280830  0.33188129     0.11100
H816        H  0.53683240  0.93812466  0.26297570     0.07700
C817        C  0.63109541  0.90876790  0.93242276    -0.11400
C818        C  0.62184331  0.88094197  0.92086098     0.05700
C819        C  0.59176393  0.87640101  0.91731628    -0.10200
C820        C  0.57162539  0.89946439  0.92379625    -0.11900
C821        C  0.58114965  0.92757963  0.93380640    -0.01600
C822        C  0.61112404  0.93172164  0.93856013    -0.10800
C823        C  0.64386141  0.85732198  0.91210689     0.05700
H824        H  0.58381800  0.85530628  0.90842899     0.07600
H825        H  0.54868672  0.89551205  0.91983525     0.11100
H826        H  0.61929519  0.95291034  0.94672556     0.11400
H827        H  0.65395331  0.91294364  0.93667638     0.07700
C828        C  0.67038147  0.86460843  0.89513298    -0.11500
C829        C  0.69247302  0.84353994  0.89026643    -0.10700
C830        C  0.68864365  0.81435349  0.90163235    -0.01700
C831        C  0.66155601  0.80646485  0.91647077    -0.11800
C832        C  0.63939779  0.82777521  0.92179333    -0.10200
H833        H  0.67432523  0.88684268  0.88605415     0.07700
H834        H  0.71288495  0.85029173  0.87815296     0.11400
H835        H  0.65796785  0.78415399  0.92554791     0.11100
H836        H  0.61927120  0.82132843  0.93490756     0.07700
C837        C  0.62022654  0.10601450  0.00679761    -0.11400
C838        C  0.61881240  0.11407637  0.04512573     0.05700
C839        C  0.59927248  0.09996581  0.06922223    -0.10200
C840        C  0.58161794  0.07783652  0.05525200    -0.11900
C841        C  0.58373239  0.06903671  0.01714579    -0.01600
C842        C  0.60303796  0.08348055  0.99299712    -0.10800
C843        C  0.63968842  0.13505393  0.06069665     0.05700
H844        H  0.59797017  0.10586618  0.09895260     0.07600
H845        H  0.56686961  0.06711803  0.07443908     0.11100
H846        H  0.60485674  0.07733030  0.96340340     0.11400
H847        H  0.63539063  0.11643699  0.98789268     0.07700
C848        C  0.65772006  0.12630567  0.09085929    -0.11500
C849        C  0.67885091  0.14495564  0.10460549    -0.10700
C850        C  0.68226162  0.17298055  0.08877141    -0.01700
C851        C  0.66386066  0.18200107  0.05885725    -0.11800
C852        C  0.64285446  0.16301659  0.04467709    -0.10200
H853        H  0.65588492  0.10468484  0.10324002     0.07700
H854        H  0.69259728  0.13728912  0.12771157     0.11400
H855        H  0.66591889  0.20349012  0.04620788     0.11100
H856        H  0.62906909  0.17010144  0.02130768     0.07700
C857        C  0.15669331  0.64547491  0.86018767    -0.11400
C858        C  0.13116372  0.65306863  0.84024292     0.05700
C859        C  0.12753204  0.68190315  0.82658720    -0.10200
C860        C  0.15020466  0.70190029  0.82995479    -0.11900
C861        C  0.17677921  0.69315037  0.84673553    -0.01600
C862        C  0.17928816  0.66517926  0.86315614    -0.10800
C863        C  0.11087386  0.62964832  0.82919327     0.05700
H864        H  0.10805662  0.68832365  0.81109072     0.07600
H865        H  0.14767725  0.72342486  0.81724689     0.11100
H866        H  0.19928332  0.65805870  0.87698278     0.11400
H867        H  0.15980724  0.62362833  0.87175510     0.07700
C868        C  0.12248462  0.60316469  0.81497864    -0.11500
C869        C  0.10437108  0.58107854  0.80263319    -0.10700
C870        C  0.07403328  0.58468714  0.80425884    -0.01700
C871        C  0.06214696  0.61095294  0.81906965    -0.11800
C872        C  0.08047889  0.63344561  0.83111629    -0.10200
H873        H  0.14577111  0.59977245  0.81242023     0.07700
H874        H  0.11424420  0.56116019  0.79136413     0.11400
H875        H  0.03880507  0.61438350  0.82032559     0.11100
H876        H  0.07099280  0.65370905  0.84186999     0.07700
C877        C  0.36570607  0.66939701  0.94474557    -0.11400
C878        C  0.36021150  0.63924181  0.94285001     0.05700
C879        C  0.33307694  0.63000289  0.92978374    -0.10200
C880        C  0.31207869  0.65040124  0.91778484    -0.11900
C881        C  0.31756890  0.68055293  0.91907662    -0.01600
C882        C  0.34437631  0.68996911  0.93329583    -0.10800
C883        C  0.38252358  0.61706157  0.95396339     0.05700
H884        H  0.32838398  0.60687273  0.92793178     0.07600
H885        H  0.29156783  0.64251652  0.90710118     0.11100
H886        H  0.34914473  0.71310255  0.93442887     0.11400
H887        H  0.38644298  0.67696497  0.95505312     0.07700
C888        C  0.41076724  0.61764715  0.93893517    -0.11500
C889        C  0.43097741  0.59512976  0.94737197    -0.10700
C890        C  0.42327507  0.57190265  0.97129870    -0.01700
C891        C  0.39510109  0.57177974  0.98671608    -0.11800
C892        C  0.37497154  0.59401715  0.97804448    -0.10200
H893        H  0.41692574  0.63511693  0.91996588     0.07700
H894        H  0.45254691  0.59590029  0.93524923     0.11400
H895        H  0.38844656  0.55435659  0.00545014     0.11100
H896        H  0.35337439  0.59319551  0.99011998     0.07700
C897        C  0.40866183  0.87363797  0.92585112    -0.11400
C898        C  0.38017443  0.88569555  0.92520610     0.05700
C899        C  0.37637877  0.91608945  0.93068444    -0.10200
C900        C  0.39995232  0.93347175  0.93968069    -0.11900
C901        C  0.42803167  0.92114554  0.94212129    -0.01600
C902        C  0.43245894  0.89133623  0.93384652    -0.10800
C903        C  0.35432639  0.86671565  0.92137310     0.05700
H904        H  0.35503899  0.92645780  0.92901755     0.07600
H905        H  0.39616732  0.95654414  0.94561017     0.11100
H906        H  0.45400850  0.88141907  0.93590192     0.11400
H907        H  0.41251309  0.85034218  0.92206584     0.07700
C908        C  0.35531733  0.84087545  0.89953420    -0.11500
C909        C  0.33111710  0.82282293  0.89736509    -0.10700
C910        C  0.30527611  0.83047483  0.91646810    -0.01700
C911        C  0.30416793  0.85638274  0.93789797    -0.11800
C912        C  0.32842453  0.87405681  0.94068049    -0.10200
H913        H  0.37469441  0.83462860  0.88392297     0.07700
H914        H  0.33256387  0.80297339  0.88055383     0.11400
H915        H  0.28473376  0.86264905  0.95343951     0.11100
H916        H  0.32695094  0.89317499  0.95880117     0.07700
C917        C  0.27383184  0.74563363  0.58564775    -0.11400
C918        C  0.25339372  0.76274336  0.60622746     0.05700
C919        C  0.23513975  0.78233499  0.58612324    -0.10200
C920        C  0.23705356  0.78466284  0.54673494    -0.11900
C921        C  0.25710455  0.76728219  0.52604501    -0.01600
C922        C  0.27555493  0.74775796  0.54599411    -0.10800
C923        C  0.25039452  0.75962324  0.64823602     0.05700
H924        H  0.21878448  0.79546858  0.60067286     0.07600
H925        H  0.22233804  0.79988285  0.53242843     0.11100
H926        H  0.29140912  0.73426336  0.53102419     0.11400
H927        H  0.28865491  0.73066957  0.60017460     0.07700
C928        C  0.25439966  0.73209622  0.66554965    -0.11500
C929        C  0.25139404  0.72890375  0.70473450    -0.10700
C930        C  0.24407065  0.75308938  0.72787419    -0.01700
C931        C  0.23952948  0.78058851  0.71065596    -0.11800
C932        C  0.24280676  0.78385002  0.67133270    -0.10200
H933        H  0.25954983  0.71280713  0.64878758     0.07700
H934        H  0.25492068  0.70732457  0.71692444     0.11400
H935        H  0.23416168  0.79971691  0.72764900     0.11100
H936        H  0.23989921  0.80550231  0.65916831     0.07700
C937        C  0.26767237  0.72847733  0.16392108    -0.11400
C938        C  0.25559100  0.75414243  0.14769550     0.05700
C939        C  0.24715621  0.77733334  0.17186569    -0.10200
C940        C  0.25023404  0.77475391  0.21126084    -0.11900
C941        C  0.26200427  0.74896677  0.22752297    -0.01600
C942        C  0.27087943  0.72593848  0.20332017    -0.10800
C943        C  0.25157525  0.75674028  0.10580947     0.05700
H944        H  0.23829161  0.79761835  0.16028316     0.07600
H945        H  0.24336389  0.79299437  0.22899122     0.11100
H946        H  0.27979280  0.70565305  0.21485635     0.11400
H947        H  0.27408831  0.71007556  0.14620252     0.07700
C948        C  0.27288823  0.74589025  0.08062240    -0.11500
C949        C  0.26937147  0.74917264  0.04133474    -0.10700
C950        C  0.24452781  0.76353295  0.02628213    -0.01700
C951        C  0.22302387  0.77392768  0.05143472    -0.11800
C952        C  0.22644736  0.77046404  0.09066315    -0.10200
H953        H  0.29263509  0.73547792  0.09131200     0.07700
H954        H  0.28647440  0.74110269  0.02278018     0.11400
H955        H  0.20349772  0.78479331  0.04078605     0.11100
H956        H  0.20932720  0.77850067  0.10919330     0.07700
C957        C  0.10245994  0.62578208  0.33402391    -0.11400
C958        C  0.13189168  0.62387561  0.32334979     0.05700
C959        C  0.14142492  0.60003026  0.30121112    -0.10200
C960        C  0.12225309  0.57850531  0.29001663    -0.11900
C961        C  0.09283753  0.58004291  0.30062422    -0.01600
C962        C  0.08307647  0.60385833  0.32297420    -0.10800
C963        C  0.15329519  0.64625171  0.33447015     0.05700
H964        H  0.16383533  0.59822388  0.29199392     0.07600
H965        H  0.13061146  0.56063340  0.27270828     0.11100
H966        H  0.06049436  0.60574326  0.33137740     0.11400
H967        H  0.09459327  0.64399821  0.35110506     0.07700
C968        C  0.14801196  0.67632303  0.32795519    -0.11500
C969        C  0.17059688  0.69640087  0.33195777    -0.10700
C970        C  0.19872354  0.68657698  0.34235772    -0.01700
C971        C  0.20326280  0.65681518  0.35124196    -0.11800
C972        C  0.18083925  0.63697767  0.34751535    -0.10200
H973        H  0.12697686  0.68400719  0.31772822     0.07700
H974        H  0.16647033  0.71923867  0.32499661     0.11400
H975        H  0.22451339  0.64862456  0.36000669     0.11100
H976        H  0.18536566  0.61401573  0.35337253     0.07700
C977        C  0.34926678  0.62240131  0.42046235    -0.11400
C978        C  0.37371827  0.62845383  0.44287758     0.05700
C979        C  0.37773423  0.65773129  0.45455282    -0.10200
C980        C  0.35778675  0.68021607  0.44375826    -0.11900
C981        C  0.33358005  0.67385806  0.42086171    -0.01600
C982        C  0.32959435  0.64455465  0.40985354    -0.10800
C983        C  0.39488252  0.60400846  0.45233810     0.05700
H984        H  0.39624531  0.66325274  0.47198005     0.07600
H985        H  0.36161031  0.70253703  0.45261822     0.11100
H986        H  0.31133307  0.63858470  0.39220973     0.11400
H987        H  0.34560618  0.60048030  0.40997541     0.07700
C988        C  0.38481643  0.57540679  0.45814926    -0.11500
C989        C  0.40418604  0.55149971  0.46126815    -0.10700
C990        C  0.43437769  0.55535000  0.45941717    -0.01700
C991        C  0.44467532  0.58411821  0.45608217    -0.11800
C992        C  0.42515172  0.60816309  0.45243558    -0.10200
H993        H  0.36175307  0.57130274  0.45953664     0.07700
H994        H  0.39538406  0.52982450  0.46465534     0.11400
H995        H  0.46780554  0.58794783  0.45490556     0.11100
H996        H  0.43378925  0.62978325  0.44802421     0.07700
C997        C  0.34520030  0.87717087  0.41404382    -0.11400
C998        C  0.37376527  0.86597147  0.41766817     0.05700
C999        C  0.37807012  0.83535092  0.41978470    -0.10200
C1000       C  0.35431311  0.81647108  0.41773925    -0.11900
C1001       C  0.32575693  0.82785580  0.41387433    -0.01600
C1002       C  0.32163574  0.85847379  0.41212504    -0.10800
C1003       C  0.39853040  0.88662102  0.41897805     0.05700
H1004       H  0.39980116  0.82599852  0.42250388     0.07600
H1005       H  0.35827645  0.79302706  0.41950177     0.11100
H1006       H  0.30004334  0.86818138  0.40942832     0.11400
H1007       H  0.34093877  0.90059799  0.41316817     0.07700
C1008       C  0.39796100  0.91172420  0.39581888    -0.11500
C1009       C  0.41925785  0.93291583  0.39924645    -0.10700
C1010       C  0.44204507  0.92954204  0.42561848    -0.01700
C1011       C  0.44360079  0.90376525  0.44756571    -0.11800
C1012       C  0.42197461  0.88254451  0.44437994    -0.10200
H1013       H  0.38072716  0.91521638  0.37521079     0.07700
H1014       H  0.41771489  0.95218292  0.38133339     0.11400
H1015       H  0.46093477  0.90050192  0.46809368     0.11100
H1016       H  0.42303449  0.86351360  0.46272882     0.07700
C1017       C  0.15542475  0.37988092  0.66711876    -0.11400
C1018       C  0.13603589  0.37130068  0.69544858     0.05700
C1019       C  0.13635843  0.34181967  0.70720042    -0.10200
C1020       C  0.15601750  0.32139887  0.69094534    -0.11900
C1021       C  0.17522898  0.33008495  0.66219071    -0.01600
C1022       C  0.17461660  0.35961644  0.65065034    -0.10800
C1023       C  0.11529077  0.39349799  0.71119243     0.05700
H1024       H  0.12156756  0.33468805  0.72901841     0.07600
H1025       H  0.15589638  0.29882569  0.70043616     0.11100
H1026       H  0.18896690  0.36721454  0.62860069     0.11400
H1027       H  0.15534085  0.40233686  0.65709938     0.07700
C1028       C  0.12542493  0.42104467  0.72221076    -0.11500
C1029       C  0.10596212  0.44419443  0.72974676    -0.10700
C1030       C  0.07578702  0.44046334  0.72623086    -0.01700
C1031       C  0.06556900  0.41226851  0.71791382    -0.11800
C1032       C  0.08517755  0.38895701  0.71055574    -0.10200
H1033       H  0.14854818  0.42501274  0.72332611     0.07700
H1034       H  0.11469375  0.46542779  0.73654703     0.11400
H1035       H  0.04248764  0.40856681  0.71512392     0.11100
H1036       H  0.07682415  0.36793399  0.70200681     0.07700
C1037       C  0.33154464  0.36678673  0.57764495    -0.11400
C1038       C  0.35891348  0.35512170  0.56763889     0.05700
C1039       C  0.36281094  0.32457045  0.56511866    -0.10200
C1040       C  0.33911318  0.30612535  0.57001376    -0.11900
C1041       C  0.31125248  0.31803097  0.57762749    -0.01600
C1042       C  0.30801645  0.34850253  0.58260625    -0.10800
C1043       C  0.38203621  0.37520892  0.55586737     0.05700
H1044       H  0.38374481  0.31511254  0.55734290     0.07600
H1045       H  0.34235141  0.28272938  0.56621155     0.11100
H1046       H  0.28701506  0.35844668  0.58899625     0.11400
H1047       H  0.32812579  0.39026896  0.58030197     0.07700
C1048       C  0.37508927  0.39771260  0.53011126    -0.11500
C1049       C  0.39603326  0.41735629  0.51877767    -0.10700
C1050       C  0.42456413  0.41516209  0.53301062    -0.01700
C1051       C  0.43177917  0.39239818  0.55852620    -0.11800
C1052       C  0.41065308  0.37239243  0.56969200    -0.10200
H1053       H  0.35333671  0.40000570  0.51846165     0.07700
H1054       H  0.38970114  0.43442277  0.49885920     0.11400
H1055       H  0.45364790  0.39005001  0.56973294     0.11100
H1056       H  0.41647747  0.35509235  0.58951670     0.07700
C1057       C  0.34930124  0.12267660  0.57756736    -0.11400
C1058       C  0.36289111  0.12654715  0.54241073     0.05700
C1059       C  0.35447276  0.15069507  0.51975637    -0.10200
C1060       C  0.33347163  0.17107986  0.53268492    -0.11900
C1061       C  0.32013779  0.16729579  0.56814813    -0.01600
C1062       C  0.32807860  0.14266666  0.59016024    -0.10800
C1063       C  0.38600844  0.10549910  0.52999050     0.05700
H1064       H  0.36464004  0.15415301  0.49249191     0.07600
H1065       H  0.32770044  0.18975678  0.51503029     0.11100
H1066       H  0.31826272  0.13909259  0.61762091     0.11400
H1067       H  0.35507526  0.10406132  0.59533777     0.07700
C1068       C  0.40829378  0.09670658  0.55521820    -0.11500
C1069       C  0.42974780  0.07630426  0.54405501    -0.10700
C1070       C  0.42908490  0.06391740  0.50760101    -0.01700
C1071       C  0.40679384  0.07277243  0.48235436    -0.11800
C1072       C  0.38561984  0.09351408  0.49333116    -0.10200
H1073       H  0.40919637  0.10579327  0.58357706     0.07700
H1074       H  0.44661717  0.06994574  0.56410925     0.11400
H1075       H  0.40577855  0.06374632  0.45396728     0.11100
H1076       H  0.36859298  0.09975299  0.47344008     0.07700
C1077       C  0.25737812  0.27961258  0.90178075    -0.11400
C1078       C  0.26532012  0.25334302  0.88348888     0.05700
C1079       C  0.27510822  0.22941337  0.90578559    -0.10200
C1080       C  0.27649281  0.23163249  0.94543496    -0.11900
C1081       C  0.26796489  0.25778522  0.96367223    -0.01600
C1082       C  0.25864768  0.28179586  0.94124400    -0.10800
C1083       C  0.26349886  0.25103882  0.84135874     0.05700
H1084       H  0.28112689  0.20871978  0.89265377     0.07600
H1085       H  0.28364067  0.21271051  0.96179773     0.11100
H1086       H  0.25213780  0.30243259  0.95417937     0.11400
H1087       H  0.25035309  0.29865296  0.88556879     0.07700
C1088       C  0.24055089  0.26470158  0.82092337    -0.11500
C1089       C  0.23887725  0.26220988  0.78131484    -0.10700
C1090       C  0.26000505  0.24582453  0.76133308    -0.01700
C1091       C  0.28307251  0.23251476  0.78179260    -0.11800
C1092       C  0.28483784  0.23515959  0.82117490    -0.10200
H1093       H  0.22353073  0.27684184  0.83560799     0.07700
H1094       H  0.22073671  0.27254087  0.76646979     0.11400
H1095       H  0.29991761  0.21993915  0.76734213     0.11100
H1096       H  0.30312084  0.22490944  0.83579098     0.07700
C1097       C  0.28025641  0.23224535  0.32652657    -0.11400
C1098       C  0.25841428  0.25083104  0.34162889     0.05700
C1099       C  0.24020202  0.26654909  0.31630541    -0.10200
C1100       C  0.24336361  0.26324642  0.27701664    -0.11900
C1101       C  0.26470202  0.24400583  0.26204634    -0.01600
C1102       C  0.28325752  0.22876353  0.28733623    -0.10800
C1103       C  0.25446360  0.25333079  0.38354628     0.05700
H1104       H  0.22295674  0.28085345  0.32677406     0.07600
H1105       H  0.22866314  0.27533069  0.25840514     0.11100
H1106       H  0.30009062  0.21393350  0.27689311     0.11400
H1107       H  0.29518565  0.22034821  0.34499708     0.07700
C1108       C  0.25946216  0.22886733  0.40722668    -0.11500
C1109       C  0.25641376  0.23119131  0.44657514    -0.10700
C1110       C  0.24793034  0.25795886  0.46334011    -0.01700
C1111       C  0.24240428  0.28231921  0.43969906    -0.11800
C1112       C  0.24575403  0.28007212  0.40034051    -0.10200
H1113       H  0.26552511  0.20773209  0.39537168     0.07700
H1114       H  0.26067912  0.21193969  0.46386122     0.11400
H1115       H  0.23598229  0.30333848  0.45164452     0.11100
H1116       H  0.24207043  0.29948803  0.38319046     0.07700
C1117       C  0.09902932  0.38819075  0.19944951    -0.11400
C1118       C  0.12908897  0.39299928  0.19764304     0.05700
C1119       C  0.13935759  0.42085589  0.20696299    -0.10200
C1120       C  0.12004904  0.44381639  0.21596273    -0.11900
C1121       C  0.08980928  0.43967626  0.21568837    -0.01600
C1122       C  0.07953574  0.41135003  0.20827144    -0.10800
C1123       C  0.14972323  0.37020644  0.18287316     0.05700
H1124       H  0.16243579  0.42508234  0.20627983     0.07600
H1125       H  0.12888567  0.46515888  0.22187995     0.11100
H1126       H  0.05641886  0.40735966  0.20773812     0.11400
H1127       H  0.09054266  0.36693407  0.19222497     0.07700
C1128       C  0.15036807  0.34131640  0.19690105    -0.11500
C1129       C  0.17070440  0.32054488  0.18291464    -0.10700
C1130       C  0.19049258  0.32828262  0.15437721    -0.01700
C1131       C  0.18933334  0.35710877  0.14015441    -0.11800
C1132       C  0.16933315  0.37772354  0.15424116    -0.10200
H1133       H  0.13550785  0.33499708  0.21906989     0.07700
H1134       H  0.17101005  0.29854845  0.19447846     0.11400
H1135       H  0.20395308  0.36389079  0.11794435     0.11100
H1136       H  0.16903673  0.39966381  0.14245835     0.07700
C1137       C  0.38540374  0.41085559  0.05076155    -0.11400
C1138       C  0.39627458  0.38320090  0.06227952     0.05700
C1139       C  0.42655234  0.37900032  0.06564603    -0.10200
C1140       C  0.44538810  0.40232070  0.05895343    -0.11900
C1141       C  0.43428568  0.43027265  0.04881371    -0.01600
C1142       C  0.40409480  0.43406034  0.04428109    -0.10800
C1143       C  0.37558470  0.35949291  0.07150100     0.05700
H1144       H  0.43557152  0.35798299  0.07456267     0.07600
H1145       H  0.46854705  0.39873672  0.06289637     0.11100
H1146       H  0.39482804  0.45513675  0.03600642     0.11400
H1147       H  0.36225257  0.41463042  0.04698864     0.07700
C1148       C  0.35028359  0.36636479  0.09215403    -0.11500
C1149       C  0.32862924  0.34573110  0.09681328    -0.10700
C1150       C  0.33168105  0.31749359  0.08122321    -0.01700
C1151       C  0.35786136  0.30975223  0.06286693    -0.11800
C1152       C  0.37966304  0.33062616  0.05801227    -0.10200
H1153       H  0.34682001  0.38812779  0.10379826     0.07700
H1154       H  0.30890099  0.35224713  0.11155752     0.11400
H1155       H  0.36074392  0.28819973  0.05037277     0.11100
H1156       H  0.39896935  0.32466342  0.04204504     0.07700
C1157       C  0.35174925  0.11198297  0.07087838    -0.11400
C1158       C  0.38017617  0.11874566  0.05966840     0.05700
C1159       C  0.38706127  0.14858857  0.05545000    -0.10200
C1160       C  0.36630724  0.17088183  0.06322251    -0.11900
C1161       C  0.33837716  0.16383712  0.07592046    -0.12800
C1162       C  0.33134817  0.13412764  0.07926519    -0.10800
C1163       C  0.40226198  0.09459771  0.05306282     0.05700
H1164       H  0.40871805  0.15481865  0.04724117     0.07600
H1165       H  0.37245321  0.19358797  0.06076122     0.11100
H1166       H  0.30993938  0.12792319  0.08865991     0.11400
H1167       H  0.34508837  0.08945339  0.07330404     0.07700
C1168       C  0.40120996  0.06836065  0.07411312    -0.11500
C1169       C  0.42058845  0.04502766  0.06684615    -0.10700
C1170       C  0.44211892  0.04737271  0.03893372    -0.01700
C1171       C  0.44402958  0.07383971  0.01871937    -0.11800
C1172       C  0.42419427  0.09708311  0.02546423    -0.10200
H1173       H  0.38544552  0.06576099  0.09651850     0.07700
H1174       H  0.41890712  0.02516847  0.08347852     0.11400
H1175       H  0.46043791  0.07631967  0.99705061     0.11100
H1176       H  0.42569076  0.11671108  0.00840723     0.07700
C1177       C  0.87290646  0.08419581  0.69640859    -0.11400
C1178       C  0.87870102  0.11135323  0.67946965     0.05700
C1179       C  0.90695520  0.11626964  0.66599064    -0.10200
C1180       C  0.92845042  0.09396779  0.66781523    -0.11900
C1181       C  0.92202911  0.06631527  0.68299670    -0.01600
C1182       C  0.89417838  0.06197413  0.69795604    -0.10800
C1183       C  0.85473086  0.13356522  0.67452498     0.05700
H1184       H  0.91212432  0.13692065  0.65274119     0.07600
H1185       H  0.94972216  0.09800038  0.65607604     0.11100
H1186       H  0.88862133  0.04114146  0.71044783     0.11400
H1187       H  0.85166457  0.07992491  0.70808142     0.07700
C1188       C  0.82676848  0.12434429  0.66458900    -0.11500
C1189       C  0.80356950  0.14439331  0.66183977    -0.10700
C1190       C  0.80756568  0.17440270  0.66872999    -0.01700
C1191       C  0.83574372  0.18395574  0.67728477    -0.11800
C1192       C  0.85911749  0.16371565  0.68014570    -0.10200
H1193       H  0.82272409  0.10144170  0.65901364     0.07700
H1194       H  0.78230944  0.13620218  0.65472061     0.11400
H1195       H  0.83957319  0.20690994  0.68279306     0.11100
H1196       H  0.88039346  0.17153451  0.68785848     0.07700
C1197       C  0.91347594  0.88853799  0.80573089    -0.11400
C1198       C  0.89261840  0.87565841  0.78187279     0.05700
C1199       C  0.89014390  0.88559401  0.74428965    -0.10200
C1200       C  0.90735668  0.90826585  0.73116681    -0.11900
C1201       C  0.92770795  0.92164785  0.75512810    -0.01600
C1202       C  0.93095663  0.91121350  0.79243241    -0.10800
C1203       C  0.87203207  0.85348919  0.79648360     0.05700
H1204       H  0.87412303  0.87656720  0.72526026     0.07600
H1205       H  0.90445705  0.91554709  0.70212291     0.11100
H1206       H  0.94646587  0.92101845  0.81153968     0.11400
H1207       H  0.91614187  0.88121919  0.83477853     0.07700
C1208       C  0.86272936  0.83012992  0.77350684    -0.11500
C1209       C  0.84122320  0.81109131  0.78617520    -0.10700
C1210       C  0.82837361  0.81522643  0.82191513    -0.01700
C1211       C  0.83827547  0.83802691  0.84520027    -0.11800
C1212       C  0.85984807  0.85681162  0.83273997    -0.10200
H1213       H  0.87190580  0.82672271  0.74556324     0.07700
H1214       H  0.83415685  0.79364472  0.76769081     0.11400
H1215       H  0.82908840  0.84158249  0.87312546     0.11100
H1216       H  0.86617727  0.87465275  0.85104642     0.07700
C1217       C  0.11359227  0.93801845  0.80687227    -0.11400
C1218       C  0.11300293  0.91027462  0.78950440     0.05700
C1219       C  0.09087936  0.90491619  0.76271752    -0.10200
C1220       C  0.06956900  0.92648311  0.75442521    -0.11900
C1221       C  0.07024557  0.95402587  0.77222317    -0.01600
C1222       C  0.09273920  0.95958650  0.79811911    -0.10800
C1223       C  0.13447417  0.88688031  0.80120955     0.05700
H1224       H  0.08992338  0.88405218  0.74820570     0.07600
H1225       H  0.05265067  0.92165636  0.73406318     0.11100
H1226       H  0.09379076  0.98046845  0.81263667     0.11400
H1227       H  0.12962402  0.94295449  0.82833650     0.07700
C1228       C  0.16255736  0.89423598  0.81364042    -0.11500
C1229       C  0.18131123  0.87302134  0.82946336    -0.10700
C1230       C  0.17290140  0.84373123  0.83204322    -0.01700
C1231       C  0.14565689  0.83587674  0.81768230    -0.11800
C1232       C  0.12650660  0.85725296  0.80282002    -0.10200
H1233       H  0.16999934  0.91653215  0.81173801     0.07700
H1234       H  0.20244695  0.87951613  0.83971397     0.11400
H1235       H  0.13868290  0.81338528  0.81944198     0.11100
H1236       H  0.10505690  0.85064730  0.79405442     0.07700
C1237       C  0.16613711  0.13696061  0.68216956    -0.11400
C1238       C  0.14155720  0.14113951  0.65878695     0.05700
C1239       C  0.14031252  0.16565014  0.63453374    -0.10200
C1240       C  0.16345481  0.18516542  0.63332444    -0.11900
C1241       C  0.18828358  0.18021975  0.65598409    -0.01600
C1242       C  0.18930022  0.15602659  0.68045189    -0.10800
C1243       C  0.11756888  0.11983177  0.66057325     0.05700
H1244       H  0.12175498  0.16944249  0.61608096     0.07600
H1245       H  0.16227554  0.20366790  0.61407703     0.11100
H1246       H  0.20797537  0.15200298  0.69866636     0.11400
H1247       H  0.16746612  0.11896846  0.70217119     0.07700
C1248       C  0.12415415  0.08998945  0.66684748    -0.11500
C1249       C  0.10223752  0.07042539  0.67496612    -0.10700
C1250       C  0.07311461  0.07997176  0.67587215    -0.01700
C1251       C  0.06602898  0.10916245  0.66648570    -0.11800
C1252       C  0.08816667  0.12906973  0.65911688    -0.10200
H1253       H  0.14644269  0.08187923  0.66684515     0.07700
H1254       H  0.10813342  0.04790068  0.68174173     0.11400
H1255       H  0.04363842  0.11696188  0.66730396     0.11100
H1256       H  0.08234755  0.15189856  0.65439620     0.07700
C1257       C  0.97371989  0.00209670  0.50323484    -0.11400
C1258       C  0.00127641  0.00706315  0.48775696     0.05700
C1259       C  0.02469921  0.01200104  0.51255914    -0.10200
C1260       C  0.02061465  0.01201244  0.55193656    -0.11900
C1261       C  0.99300200  0.00705830  0.56740759    -0.01600
C1262       C  0.96963136  0.00208560  0.54253126    -0.10800
C1263       C  0.00539989  0.00754670  0.44589020     0.05700
H1264       H  0.04628249  0.01550971  0.50149245     0.07600
H1265       H  0.03915576  0.01555735  0.57025602     0.11100
H1266       H  0.94804932  0.99828332  0.55341373     0.11400
H1267       H  0.95517570  0.99863601  0.48489576     0.07700
C1268       C  0.99206031  0.98675554  0.42244967    -0.11500
C1269       C  0.99574476  0.98749403  0.38301416    -0.10700
C1270       C  0.01282806  0.00909050  0.36608912    -0.01700
C1271       C  0.02605760  0.02991791  0.38963313    -0.11800
C1272       C  0.02241361  0.02912711  0.42898912    -0.10200
H1273       H  0.97907173  0.96965403  0.43468154     0.07700
H1274       H  0.98543863  0.97096117  0.36584594     0.11400
H1275       H  0.03928150  0.04694400  0.37767353     0.11100
H1276       H  0.03261488  0.04569836  0.44620205     0.07700
C1277       C  0.97174210  0.00023452  0.00761407    -0.11400
C1278       C  0.99531842  0.01191815  0.98814815     0.05700
C1279       C  0.01916700  0.02215298  0.00909613    -0.10200
C1280       C  0.01948603  0.02035443  0.04885645    -0.11900
C1281       C  0.99581247  0.00854281  0.06834486    -0.01600
C1282       C  0.97190841  0.99868266  0.04711828    -0.10800
C1283       C  0.99469326  0.01352545  0.94610684     0.05700
H1284       H  0.03771474  0.03114705  0.99465283     0.07600
H1285       H  0.03822552  0.02810099  0.06426060     0.11100
H1286       H  0.95317123  0.98957642  0.06099136     0.11400
H1287       H  0.95294824  0.99258248  0.99222140     0.07700
C1288       C  0.98638903  0.98922736  0.92430265    -0.11500
C1289       C  0.98613705  0.99066638  0.88458781    -0.10700
C1290       C  0.99412835  0.01648103  0.86592960    -0.01700
C1291       C  0.00156356  0.04102139  0.88793225    -0.11800
C1292       C  0.00193732  0.03951874  0.92751971    -0.10200
H1293       H  0.98082277  0.96885943  0.93801035     0.07700
H1294       H  0.98073694  0.97127347  0.86852831     0.11400
H1295       H  0.00771777  0.06131661  0.87451023     0.11100
H1296       H  0.00788556  0.05870404  0.94365725     0.07700
C1297       C  0.84178495  0.12340503  0.16773277    -0.11400
C1298       C  0.86948802  0.13304871  0.17811310     0.05700
C1299       C  0.87371012  0.16329889  0.18267556    -0.10200
C1300       C  0.85031293  0.18331637  0.17849503    -0.11900
C1301       C  0.82232915  0.17339554  0.16960355    -0.01600
C1302       C  0.81855593  0.14324939  0.16359479    -0.10800
C1303       C  0.89339102  0.11115792  0.18459933     0.05700
H1304       H  0.89484390  0.17135854  0.19063537     0.07600
H1305       H  0.85393916  0.20639609  0.18334640     0.11100
H1306       H  0.79744274  0.13481509  0.15622654     0.11400
H1307       H  0.83799003  0.10033712  0.16300270     0.07700
C1308       C  0.88758909  0.08484477  0.20358795    -0.11500
C1309       C  0.90867558  0.06251553  0.20602090    -0.10700
C1310       C  0.93624751  0.06597080  0.18980091    -0.01700
C1311       C  0.94275933  0.09296080  0.17283530    -0.11800
C1312       C  0.92147667  0.11537139  0.17020984    -0.10200
H1313       H  0.86640497  0.08124023  0.21585735     0.07700
H1314       H  0.90309279  0.04216888  0.21977985     0.11400
H1315       H  0.96379868  0.09622909  0.15998990     0.11100
H1316       H  0.92656256  0.13541356  0.15541067     0.07700
C1317       C  0.88284978  0.84822494  0.33794223    -0.11400
C1318       C  0.89029122  0.84804022  0.29940958     0.05700
C1319       C  0.87731748  0.82749472  0.27516247    -0.10200
C1320       C  0.85625668  0.80849729  0.28890157    -0.11900
C1321       C  0.84766600  0.80994186  0.32705086    -0.01600
C1322       C  0.86176351  0.82947408  0.35156488    -0.10800
C1323       C  0.90912942  0.87122236  0.28414020     0.05700
H1324       H  0.88295982  0.82663980  0.24536979     0.07600
H1325       H  0.84597568  0.79350729  0.26944438     0.11100
H1326       H  0.85598192  0.83083149  0.38129047     0.11400
H1327       H  0.89225761  0.86389626  0.35725608     0.07700
C1328       C  0.90100007  0.88586119  0.25065035    -0.11500
C1329       C  0.91677593  0.90958144  0.23773505    -0.10700
C1330       C  0.94123480  0.91925165  0.25785160    -0.01700
C1331       C  0.94981497  0.90429498  0.29103200    -0.11800
C1332       C  0.93379718  0.88056989  0.30417316    -0.10200
H1333       H  0.88182259  0.87957078  0.23498945     0.07700
H1334       H  0.90964608  0.92044270  0.21190854     0.11400
H1335       H  0.96862287  0.91114393  0.30704295     0.11100
H1336       H  0.94059251  0.86961499  0.33007825     0.07700
C1337       C  0.13410776  0.92759784  0.27167550    -0.11400
C1338       C  0.12507497  0.89980642  0.28354964     0.05700
C1339       C  0.09513364  0.89394898  0.28304056    -0.10200
C1340       C  0.07472847  0.91591596  0.27290283    -0.11900
C1341       C  0.08387076  0.94421043  0.26340880    -0.01600
C1342       C  0.11380657  0.94953415  0.26203808    -0.10800
C1343       C  0.14681559  0.87801570  0.29871974     0.05700
H1344       H  0.08737136  0.87285936  0.29217610     0.07600
H1345       H  0.05178283  0.91119765  0.27438404     0.11100
H1346       H  0.12157591  0.97097867  0.25434993     0.11400
H1347       H  0.15697634  0.93266737  0.27062400     0.07700
C1348       C  0.14433608  0.84773469  0.29202072    -0.11500
C1349       C  0.16490080  0.82766857  0.30703734    -0.10700
C1350       C  0.18821254  0.83746388  0.32931808    -0.01700
C1351       C  0.19057386  0.86767876  0.33597586    -0.11800
C1352       C  0.17021072  0.88761844  0.32094997    -0.10200
H1353       H  0.12666106  0.83957294  0.27493579     0.07700
H1354       H  0.16236181  0.80449555  0.30160114     0.11400
H1355       H  0.20816211  0.87602100  0.35308324     0.11100
H1356       H  0.17253437  0.91064050  0.32748666     0.07700
C1357       C  0.15357995  0.16354141  0.13373759    -0.11400
C1358       C  0.15596181  0.13740510  0.15495295     0.05700
C1359       C  0.18190007  0.13167828  0.17512578    -0.10200
C1360       C  0.20499437  0.15093093  0.17344985    -0.11900
C1361       C  0.20285022  0.17687485  0.15205159    -0.01600
C1362       C  0.17675720  0.18314970  0.13243533    -0.10800
C1363       C  0.13170510  0.11615802  0.15718425     0.05700
H1364       H  0.18432781  0.11239613  0.19284922     0.07600
H1365       H  0.22451934  0.14559815  0.18949065     0.11100
H1366       H  0.17442309  0.20296896  0.11569356     0.11400
H1367       H  0.13399323  0.16866125  0.11775896     0.07700
C1368       C  0.10238039  0.12568529  0.15905423    -0.11500
C1369       C  0.08030577  0.10567493  0.16665078    -0.10700
C1370       C  0.08729083  0.07596314  0.17300609    -0.01700
C1371       C  0.11620362  0.06621513  0.16880161    -0.11800
C1372       C  0.13803700  0.08594009  0.16045904    -0.10200
H1373       H  0.09664660  0.14874987  0.15675322     0.07700
H1374       H  0.05814123  0.11370152  0.17003711     0.11400
H1375       H  0.12207221  0.04333223  0.17318111     0.11100
H1376       H  0.16012790  0.07755259  0.15784947     0.07700
loop_ 
_geom_bond_atom_site_label_1 
_geom_bond_atom_site_label_2 
_geom_bond_distance 
_geom_bond_site_symmetry_2 
_ccdc_geom_bond_type 
O1           Ni7   1.923       .  S
O1           C22   1.271       .  A
O2          Ni25   1.923       .  S
O2           C11   1.270       .  A
O3           Ni7   1.907       .  S
O3          Ni25   1.919   1_665  S
O3          Ni19   1.920   1_655  S
O3           H26   0.966   1_655  S
C4           O21   1.280   1_545  A
C4           O13   1.279       .  A
C4         C1270   1.488       .  S
O5          Ni24   1.926       .  S
O5           C11   1.270       .  A
O6          Ni24   1.905   1_565  S
O6            C8   1.268       .  A
Ni7          O10   1.923       .  S
Ni7          O12   1.901   1_565  S
C8           O18   1.271       .  A
C8         C1341   1.483       .  S
O9          Ni25   1.920       .  S
O9           C15   1.275   1_455  A
O10          C15   1.274   1_565  A
C11        C1370   1.477       .  S
O12          C14   1.269       .  A
O13         Ni24   1.923       .  S
C14          O20   1.276       .  A
C14        C1310   1.482       .  S
C15        C1281   1.487       .  S
H16          O17   0.966       .  S
O17         Ni25   1.912       .  S
O17         Ni19   1.902   1_545  S
O17         Ni24   1.900       .  S
O18         Ni19   1.930       .  S
Ni19         O23   1.909   1_455  S
Ni19         O21   1.930       .  S
O20         Ni25   1.945   1_655  S
C22          O23   1.269       .  A
C22        C1330   1.481       .  S
O27         Ni33   1.928       .  S
O27          C48   1.274       .  A
O28         Ni51   1.917       .  S
O28          C37   1.268       .  A
O29         Ni33   1.903       .  S
O29         Ni51   1.912   1_665  S
O29         Ni45   1.924       .  S
O29          H52   0.966   1_655  S
C30          O47   1.285   1_545  A
C30          O39   1.276   1_655  A
C30        C1290   1.484       .  S
O31         Ni50   1.921       .  S
O31          C37   1.269       .  A
O32         Ni50   1.905       .  S
O32          C34   1.268   1_545  A
Ni33         O36   1.938       .  S
Ni33         O38   1.904   1_565  S
C34          O44   1.273       .  A
C34        C1221   1.483       .  S
O35         Ni51   1.909       .  S
O35          C41   1.272   1_455  A
O36          C41   1.277   1_565  A
C37        C1250   1.470       .  S
O38          C40   1.269       .  A
O39         Ni50   1.909       .  S
C40          O46   1.276       .  A
C40        C1181   1.486       .  S
C41        C1261   1.486       .  S
H42          O43   0.966   1_655  S
O43         Ni51   1.906       .  S
O43         Ni45   1.900   1_445  S
O43         Ni50   1.894       .  S
O44         Ni45   1.934   1_455  S
Ni45         O49   1.918       .  S
Ni45         O47   1.944       .  S
O46         Ni51   1.948   1_655  S
C48          O49   1.274       .  A
C48        C1201   1.486       .  S
O53         Ni59   1.928       .  S
O53          C74   1.272       .  A
O54         Ni77   1.932       .  S
O54          C63   1.274       .  A
O55         Ni59   1.896       .  S
O55         Ni77   1.915       .  S
O55         Ni71   1.909       .  S
O55          H78   0.966       .  S
C56          O73   1.278       .  A
C56          O65   1.278       .  A
C56        C1101   1.486       .  S
O57         Ni76   1.927       .  S
O57          C63   1.272       .  A
O58         Ni76   1.908       .  S
O58          C60   1.269       .  A
Ni59         O62   1.919       .  S
Ni59         O64   1.900       .  S
C60          O70   1.273       .  A
C60        C1361   1.488       .  S
O61         Ni77   1.930       .  S
O61          C67   1.282       .  A
O62          C67   1.277       .  A
C63        C1161   1.487       .  S
O64          C66   1.268       .  A
O65         Ni76   1.924       .  S
C66          O72   1.276       .  A
C66        C1150   1.485       .  S
C67        C1081   1.487   1_554  S
H68          O69   0.966       .  S
O69         Ni77   1.918       .  S
O69         Ni71   1.907       .  S
O69         Ni76   1.900       .  S
O70         Ni71   1.937       .  S
Ni71         O75   1.919       .  S
Ni71         O73   1.924       .  S
O72         Ni77   1.947       .  S
C74          O75   1.270       .  A
C74        C1130   1.489       .  S
O79         Ni85   1.930       .  S
O79         C100   1.274       .  A
O80        Ni103   1.919       .  S
O80          C89   1.269       .  A
O81         Ni85   1.908       .  S
O81        Ni103   1.916       .  S
O81         Ni97   1.921       .  S
O81         H104   0.967       .  S
C82          O99   1.281       .  A
C82          O91   1.275       .  A
C82        C1090   1.485       .  S
O83        Ni102   1.923       .  S
O83          C89   1.269       .  A
O84        Ni102   1.906       .  S
O84          C86   1.269       .  A
Ni85         O88   1.934       .  S
Ni85         O90   1.898       .  S
C86          O96   1.270       .  A
C86        C1241   1.474       .  S
O87        Ni103   1.908       .  S
O87          C93   1.273       .  A
O88          C93   1.276       .  A
C89        C1061   1.484       .  S
O90          C92   1.269       .  A
O91        Ni102   1.911       .  S
C92          O98   1.274       .  A
C92        C1041   1.482       .  S
C93        C1110   1.485       .  S
H94          O95   0.966       .  S
O95        Ni103   1.909       .  S
O95         Ni97   1.907       .  S
O95        Ni102   1.905       .  S
O96         Ni97   1.923       .  S
Ni97        O101   1.917       .  S
Ni97         O99   1.937       .  S
O98        Ni103   1.937       .  S
C100        O101   1.270       .  A
C100       C1021   1.489       .  S
O105       Ni111   1.922       .  S
O105        C126   1.270       .  A
O106       Ni129   1.914       .  S
O106        C115   1.268       .  A
O107       Ni111   1.904       .  S
O107       Ni129   1.912       .  S
O107       Ni123   1.924       .  S
O107        H130   0.966       .  S
C108        O125   1.282       .  A
C108        O117   1.277       .  A
C108        C921   1.488       .  S
O109       Ni128   1.933       .  S
O109        C115   1.272       .  A
O110       Ni128   1.904       .  S
O110        C112   1.270       .  A
Ni111       O114   1.928       .  S
Ni111       O116   1.901       .  S
C112        O122   1.276       .  A
C112       C1001   1.491       .  S
O113       Ni129   1.921       .  S
O113        C119   1.277       .  A
O114        C119   1.278       .  A
C115       C1350   1.486       .  S
O116        C118   1.267       .  A
O117       Ni128   1.917       .  S
C118        O124   1.272       .  A
C118        C970   1.483       .  S
C119        C941   1.487       .  S
H120        O121   0.966       .  S
O121       Ni129   1.909       .  S
O121       Ni123   1.916       .  S
O121       Ni128   1.899       .  S
O122       Ni123   1.942       .  S
Ni123       O127   1.939       .  S
Ni123       O125   1.935       .  S
O124       Ni129   1.934       .  S
C126        O127   1.275       .  A
C126        C981   1.495       .  S
O131       Ni137   1.926       .  S
O131        C152   1.271       .  A
O132       Ni155   1.906       .  S
O132        C141   1.267       .  A
O133       Ni137   1.899       .  S
O133       Ni155   1.904       .  S
O133       Ni149   1.903       .  S
O133        H156   0.966       .  S
C134        O151   1.275       .  A
C134        O143   1.279       .  A
C134        C950   1.487   1_556  S
O135       Ni154   1.942       .  S
O135        C141   1.275       .  A
O136       Ni154   1.910       .  S
O136        C138   1.270       .  A
Ni137       O140   1.924       .  S
Ni137       O142   1.898       .  S
C138        O148   1.271       .  A
C138        C910   1.479       .  S
O139       Ni155   1.926       .  S
O139        C145   1.280       .  A
O140        C145   1.278       .  A
C141       C1230   1.477       .  S
O142        C144   1.266       .  A
O143       Ni154   1.933       .  S
C144        O150   1.271       .  A
C144        C861   1.479       .  S
C145        C930   1.487       .  S
H146        O147   0.966       .  S
O147       Ni155   1.918       .  S
O147       Ni149   1.909       .  S
O147       Ni154   1.908       .  S
O148       Ni149   1.921       .  S
Ni149       O153   1.909       .  S
Ni149       O151   1.919       .  S
O150       Ni155   1.935       .  S
C152        O153   1.267       .  A
C152        C881   1.475       .  S
O157       Ni163   1.933       .  S
O157        C178   1.274   1_556  A
O158       Ni181   1.913       .  S
O158        C167   1.269       .  A
O159       Ni163   1.904       .  S
O159       Ni181   1.911   1_545  S
O159       Ni175   1.920   1_556  S
O159        H182   0.967       .  S
C160        O177   1.282       .  A
C160        O169   1.278       .  A
C160        C801   1.490       .  S
O161       Ni180   1.927   1_556  S
O161        C167   1.272       .  A
O162       Ni180   1.915       .  S
O162        C164   1.269   1_565  A
Ni163       O166   1.930       .  S
Ni163       O168   1.909   1_545  S
C164        O174   1.270       .  A
C164       C1170   1.486       .  S
O165       Ni181   1.919       .  S
O165        C171   1.275       .  A
O166        C171   1.277   1_545  A
C167        C901   1.469       .  S
O168        C170   1.272       .  A
O169       Ni180   1.920       .  S
C170        O176   1.276       .  A
C170        C821   1.490       .  S
C171        C781   1.485       .  S
H172        O173   0.966       .  S
O173       Ni181   1.911   1_554  S
O173       Ni175   1.893   1_565  S
O173       Ni180   1.899       .  S
O174       Ni175   1.929       .  S
Ni175       O179   1.898       .  S
Ni175       O177   1.938   1_545  S
O176       Ni181   1.942       .  S
C178        O179   1.267       .  A
C178        C841   1.476       .  S
O183       Ni189   1.933       .  S
O183        C204   1.275       .  A
O184       Ni207   1.915       .  S
O184        C193   1.273       .  A
O185       Ni189   1.895       .  S
O185       Ni207   1.902   1_565  S
O185       Ni201   1.909       .  S
O185        H208   0.966       .  S
C186        O203   1.278       .  A
C186        O195   1.276   1_565  A
C186        C810   1.483       .  S
O187       Ni206   1.927       .  S
O187        C193   1.273       .  A
O188       Ni206   1.915   1_565  S
O188        C190   1.272       .  A
Ni189       O192   1.925       .  S
Ni189       O194   1.915       .  S
C190        O200   1.274       .  A
C190       C1010   1.487       .  S
O191       Ni207   1.933   1_565  S
O191        C197   1.282       .  A
O192        C197   1.279       .  A
C193       C1070   1.482       .  S
O194        C196   1.272   1_565  A
O195       Ni206   1.922       .  S
C196        O202   1.275       .  A
C196        C761   1.496       .  S
C197        C790   1.484       .  S
H198        O199   0.966       .  S
O199       Ni207   1.921       .  S
O199       Ni201   1.903   1_545  S
O199       Ni206   1.899       .  S
O200       Ni201   1.934       .  S
Ni201       O205   1.904       .  S
Ni201       O203   1.931       .  S
O202       Ni207   1.940       .  S
C204        O205   1.269       .  A
C204        C741   1.481       .  S
O209       Ni215   1.916       .  S
O209        C230   1.271       .  A
O210       Ni233   1.901       .  S
O210        C219   1.266       .  A
O211       Ni215   1.913       .  S
O211       Ni233   1.910       .  S
O211       Ni227   1.935       .  S
O211        H234   0.966       .  S
C212        O229   1.281       .  A
C212        O221   1.275       .  A
C212        C690   1.482       .  S
O213       Ni232   1.924       .  S
O213        C219   1.270       .  A
O214       Ni232   1.910       .  S
O214        C216   1.270       .  A
Ni215       O218   1.934       .  S
Ni215       O220   1.902       .  S
C216        O226   1.272       .  A
C216        C701   1.489       .  S
O217       Ni233   1.910       .  S
O217        C223   1.269       .  A
O218        C223   1.272       .  A
C219        C730   1.474       .  S
O220        C222   1.271       .  A
O221       Ni232   1.911       .  S
C222        O228   1.278       .  A
C222        C750   1.484       .  S
C223        C661   1.486       .  S
H224        O225   0.966       .  S
O225       Ni233   1.902       .  S
O225       Ni227   1.902       .  S
O225       Ni232   1.905       .  S
O226       Ni227   1.931       .  S
Ni227       O231   1.912       .  S
Ni227       O229   1.934       .  S
O228       Ni233   1.949       .  S
C230        O231   1.271       .  A
C230       C1321   1.480       .  S
O235       Ni241   1.921       .  S
O235        C256   1.269       .  A
O236       Ni259   1.930       .  S
O236        C245   1.273       .  A
O237       Ni241   1.903       .  S
O237       Ni259   1.918       .  S
O237       Ni253   1.917       .  S
O237        H260   0.966       .  S
C238        O255   1.281       .  A
C238        O247   1.278       .  A
C238        C670   1.487       .  S
O239       Ni258   1.932       .  S
O239        C245   1.272       .  A
O240       Ni258   1.907       .  S
O240        C242   1.269       .  A
Ni241       O244   1.916       .  S
Ni241       O246   1.901       .  S
C242        O252   1.272       .  A
C242        C630   1.486       .  S
O243       Ni259   1.926       .  S
O243        C249   1.279       .  A
O244        C249   1.275       .  A
C245        C641   1.488       .  S
O246        C248   1.269       .  A
O247       Ni258   1.923       .  S
C248        O254   1.276       .  A
C248        C830   1.486       .  S
C249        C681   1.485   1_556  S
H250        O251   0.966       .  S
O251       Ni259   1.914       .  S
O251       Ni253   1.909       .  S
O251       Ni258   1.903       .  S
O252       Ni253   1.931       .  S
Ni253       O257   1.923       .  S
Ni253       O255   1.929       .  S
O254       Ni259   1.944       .  S
C256        O257   1.271       .  A
C256       C1210   1.485       .  S
O261       Ni267   1.921       .  S
O261        C282   1.270       .  A
O262       Ni285   1.921       .  S
O262        C271   1.271       .  A
O263       Ni267   1.897       .  S
O263       Ni285   1.905       .  S
O263       Ni279   1.909       .  S
O263        H286   0.966       .  S
C264        O281   1.279       .  A
C264        O273   1.277       .  A
C264        C541   1.485   1_554  S
O265       Ni284   1.915       .  S
O265        C271   1.269       .  A
O266       Ni284   1.905       .  S
O266        C268   1.269       .  A
Ni267       O270   1.917       .  S
Ni267       O272   1.899       .  S
C268        O278   1.271       .  A
C268        C610   1.477       .  S
O269       Ni285   1.924       .  S
O269        C275   1.281       .  A
O270        C275   1.277       .  A
C271        C590   1.478       .  S
O272        C274   1.267       .  A
O273       Ni284   1.918       .  S
C274        O280   1.273       .  A
C274       C1301   1.485       .  S
C275        C570   1.479       .  S
H276        O277   0.966       .  S
O277       Ni285   1.922       .  S
O277       Ni279   1.901       .  S
O277       Ni284   1.898       .  S
O278       Ni279   1.930       .  S
Ni279       O283   1.912       .  S
Ni279       O281   1.926       .  S
O280       Ni285   1.936       .  S
C282        O283   1.269       .  A
C282        C850   1.479       .  S
O287       Ni293   1.920       .  S
O287        C308   1.272       .  A
O288       Ni311   1.923       .  S
O288        C297   1.270       .  A
O289       Ni293   1.908       .  S
O289       Ni311   1.924       .  S
O289       Ni305   1.929       .  S
O289        H312   0.966       .  S
C290        O307   1.282       .  A
C290        O299   1.276       .  A
C290        C561   1.481       .  S
O291       Ni310   1.921       .  S
O291        C297   1.268       .  A
O292       Ni310   1.901       .  S
O292        C294   1.269       .  A
Ni293       O296   1.926       .  S
Ni293       O298   1.899       .  S
C294        O304   1.277       .  A
C294        C530   1.492       .  S
O295       Ni311   1.915       .  S
O295        C301   1.273       .  A
O296        C301   1.274       .  A
C297        C501   1.486       .  S
O298        C300   1.268       .  A
O299       Ni310   1.905       .  S
C300        O306   1.275       .  A
C300       C1190   1.488       .  S
C301        C550   1.485       .  S
H302        O303   0.966       .  S
O303       Ni311   1.906       .  S
O303       Ni305   1.909       .  S
O303       Ni310   1.896       .  S
O304       Ni305   1.945       .  S
Ni305       O309   1.937       .  S
Ni305       O307   1.936       .  S
O306       Ni311   1.946       .  S
C308        O309   1.276       .  A
C308        C770   1.499       .  S
O313       Ni319   1.923       .  S
O313        C334   1.272   1_554  A
O314       Ni337   1.907       .  S
O314        C323   1.268       .  A
O315       Ni319   1.897       .  S
O315       Ni337   1.901       .  S
O315       Ni331   1.916   1_554  S
O315        H338   0.967       .  S
C316        O333   1.282       .  A
C316        O325   1.279       .  A
C316        C461   1.487       .  S
O317       Ni336   1.932       .  S
O317        C323   1.274   1_556  A
O318       Ni336   1.912       .  S
O318        C320   1.270       .  A
Ni319       O322   1.928       .  S
Ni319       O324   1.912       .  S
C320        O330   1.277       .  A
C320        C650   1.496       .  S
O321       Ni337   1.928       .  S
O321        C327   1.280       .  A
O322        C327   1.280       .  A
C323        C601   1.473       .  S
O324        C326   1.269       .  A
O325       Ni336   1.920       .  S
C326        O332   1.271       .  A
C326       C1141   1.488       .  S
C327        C481   1.484       .  S
H328        O329   0.965       .  S
O329       Ni337   1.914   1_556  S
O329       Ni331   1.901       .  S
O329       Ni336   1.892       .  S
O330       Ni331   1.947       .  S
Ni331       O335   1.917       .  S
Ni331       O333   1.938       .  S
O332       Ni337   1.933       .  S
C334        O335   1.272       .  A
C334        C890   1.481       .  S
O339       Ni345   1.923       .  S
O339        C360   1.272       .  A
O340       Ni363   1.904       .  S
O340        C349   1.269       .  A
O341       Ni345   1.897       .  S
O341       Ni363   1.903       .  S
O341       Ni357   1.914       .  S
O341        H364   0.966       .  S
C342        O359   1.279       .  A
C342        O351   1.276       .  A
C342        C470   1.485       .  S
O343       Ni362   1.923       .  S
O343        C349   1.271       .  A
O344       Ni362   1.908       .  S
O344        C346   1.271       .  A
Ni345       O348   1.925       .  S
Ni345       O350   1.914       .  S
C346        O356   1.276       .  A
C346        C521   1.492       .  S
O347       Ni363   1.933       .  S
O347        C353   1.280       .  A
O348        C353   1.278       .  A
C349        C721   1.472       .  S
O350        C352   1.270       .  A
O351       Ni362   1.917       .  S
C352        O358   1.272       .  A
C352        C990   1.494       .  S
C353        C490   1.486       .  S
H354        O355   0.966       .  S
O355       Ni363   1.918       .  S
O355       Ni357   1.905       .  S
O355       Ni362   1.896       .  S
O356       Ni357   1.940       .  S
Ni357       O361   1.913       .  S
Ni357       O359   1.933       .  S
O358       Ni363   1.937       .  S
C360        O361   1.270       .  A
C360       C1050   1.480       .  S
O365       Ni371   1.926       .  S
O365        C386   1.273       .  A
O366       Ni389   1.914   1_655  S
O366        C375   1.269       .  A
O367       Ni371   1.896       .  S
O367       Ni389   1.903       .  S
O367       Ni383   1.918       .  S
O367        H390   0.965       .  S
C368        O385   1.284       .  A
C368        O377   1.275   1_455  A
C368        C430   1.481       .  S
O369       Ni388   1.913       .  S
O369        C375   1.268       .  A
O370       Ni388   1.910       .  S
O370        C372   1.270       .  A
Ni371       O374   1.932       .  S
Ni371       O376   1.904       .  S
C372        O382   1.273       .  A
C372        C710   1.487       .  S
O373       Ni389   1.915       .  S
O373        C379   1.278       .  A
O374        C379   1.280       .  A
C375        C581   1.474       .  S
O376        C378   1.268       .  A
O377       Ni388   1.906       .  S
C378        O384   1.275       .  A
C378       C1121   1.492       .  S
C379        C450   1.484       .  S
H380        O381   0.967       .  S
O381       Ni389   1.915       .  S
O381       Ni383   1.901       .  S
O381       Ni388   1.895   1_455  S
O382       Ni383   1.937   1_655  S
Ni383       O387   1.920       .  S
Ni383       O385   1.940       .  S
O384       Ni389   1.943       .  S
C386        O387   1.272       .  A
C386        C961   1.485       .  S
O391       Ni397   1.928       .  S
O391        C412   1.272       .  A
O392       Ni415   1.925       .  S
O392        C401   1.272       .  A
O393       Ni397   1.898       .  S
O393       Ni415   1.910   1_455  S
O393       Ni409   1.908       .  S
O393        H416   0.966       .  S
C394        O411   1.279   1_655  A
C394        O403   1.276       .  A
C394        C441   1.485   1_655  S
O395       Ni414   1.916       .  S
O395        C401   1.269       .  A
O396       Ni414   1.907       .  S
O396        C398   1.270       .  A
Ni397       O400   1.922       .  S
Ni397       O402   1.905       .  S
C398        O408   1.273       .  A
C398        C621   1.488       .  S
O399       Ni415   1.923       .  S
O399        C405   1.280   1_655  A
O400        C405   1.278       .  A
C401        C510   1.478       .  S
O402        C404   1.269       .  A
O403       Ni414   1.915       .  S
C404        O410   1.274       .  A
C404       C1030   1.489       .  S
C405        C421   1.485       .  S
H406        O407   0.966   1_455  S
O407       Ni415   1.920       .  S
O407       Ni409   1.905   1_655  S
O407       Ni414   1.897       .  S
O408       Ni409   1.933   1_655  S
Ni409       O413   1.914       .  S
Ni409       O411   1.929       .  S
O410       Ni415   1.939   1_455  S
C412        O413   1.269       .  A
C412        C870   1.480       .  S
C417        C418   1.402       .  A
C417        C422   1.393       .  A
C417        H427   1.083       .  S
C418        C423   1.488       .  S
C418        C419   1.410   1_455  A
C419        C420   1.402       .  A
C419        H424   1.083       .  S
C420        C421   1.405   1_655  A
C420        H425   1.083       .  S
C421        C422   1.409       .  A
C422        H426   1.083       .  S
C423        C428   1.409       .  A
C423        C432   1.403       .  A
C428        C429   1.400       .  A
C428        H433   1.082       .  S
C429        C430   1.403       .  A
C429        H434   1.083       .  S
C430        C431   1.408       .  A
C431        C432   1.396       .  A
C431        H435   1.083   1_455  S
C432        H436   1.083   1_455  S
C437        C438   1.407       .  A
C437        C442   1.400       .  A
C437        H447   1.083       .  S
C438        C443   1.488   1_556  S
C438        C439   1.405   1_455  A
C439        C440   1.396       .  A
C439        H444   1.083       .  S
C440        C441   1.407   1_655  A
C440        H445   1.083       .  S
C441        C442   1.406       .  A
C442        H446   1.083       .  S
C443        C448   1.405       .  A
C443        C452   1.407   1_455  A
C448        C449   1.398       .  A
C448        H453   1.083       .  S
C449        C450   1.407       .  A
C449        H454   1.083       .  S
C450        C451   1.405   1_455  A
C451        C452   1.399       .  A
C451        H455   1.083       .  S
C452        H456   1.083       .  S
C457        C458   1.403       .  A
C457        C462   1.397       .  A
C457        H467   1.083       .  S
C458        C463   1.488       .  S
C458        C459   1.408       .  A
C459        C460   1.403       .  A
C459        H464   1.083       .  S
C460        C461   1.406       .  A
C460        H465   1.083       .  S
C461        C462   1.408       .  A
C462        H466   1.083       .  S
C463        C468   1.403       .  A
C463        C472   1.408       .  A
C468        C469   1.396       .  A
C468        H473   1.083       .  S
C469        C470   1.407       .  A
C469        H474   1.083       .  S
C470        C471   1.406       .  A
C471        C472   1.404       .  A
C471        H475   1.083       .  S
C472        H476   1.083       .  S
C477        C478   1.409       .  A
C477        C482   1.403       .  A
C477        H487   1.083       .  S
C478        C483   1.491       .  S
C478        C479   1.405       .  A
C479        C480   1.399       .  A
C479        H484   1.083       .  S
C480        C481   1.406       .  A
C480        H485   1.083       .  S
C481        C482   1.405       .  A
C482        H486   1.083       .  S
C483        C488   1.404       .  A
C483        C492   1.409       .  A
C488        C489   1.398       .  A
C488        H493   1.083       .  S
C489        C490   1.407       .  A
C489        H494   1.083       .  S
C490        C491   1.405       .  A
C491        C492   1.405       .  A
C491        H495   1.083       .  S
C492        H496   1.083       .  S
C497        C498   1.401       .  A
C497        C502   1.398       .  A
C497        H507   1.083       .  S
C498        C503   1.481       .  S
C498        C499   1.406       .  A
C499        C500   1.402       .  A
C499        H504   1.083       .  S
C500        C501   1.406       .  A
C500        H505   1.083       .  S
C501        C502   1.409       .  A
C502        H506   1.083       .  S
C503        C508   1.408       .  A
C503        C512   1.401       .  A
C508        C509   1.404       .  A
C508        H513   1.083       .  S
C509        C510   1.404       .  A
C509        H514   1.083       .  S
C510        C511   1.406       .  A
C511        C512   1.396       .  A
C511        H515   1.083       .  S
C512        H516   1.083       .  S
C517        C518   1.409       .  A
C517        C522   1.408       .  A
C517        H527   1.083       .  S
C518        C523   1.494       .  S
C518        C519   1.405       .  A
C519        C520   1.395       .  A
C519        H524   1.083       .  S
C520        C521   1.407       .  A
C520        H525   1.083       .  S
C521        C522   1.409       .  A
C522        H526   1.083       .  S
C523        C528   1.409       .  A
C523        C532   1.404       .  A
C528        C529   1.408       .  A
C528        H533   1.083       .  S
C529        C530   1.408       .  A
C529        H534   1.083       .  S
C530        C531   1.408       .  A
C531        C532   1.394       .  A
C531        H535   1.083       .  S
C532        H536   1.083       .  S
C537        C538   1.408       .  A
C537        C542   1.399       .  A
C537        H547   1.083       .  S
C538        C543   1.490       .  S
C538        C539   1.405       .  A
C539        C540   1.398       .  A
C539        H544   1.083       .  S
C540        C541   1.407       .  A
C540        H545   1.083       .  S
C541        C542   1.406       .  A
C542        H546   1.083       .  S
C543        C548   1.405       .  A
C543        C552   1.409       .  A
C548        C549   1.396       .  A
C548        H553   1.083       .  S
C549        C550   1.407       .  A
C549        H554   1.083       .  S
C550        C551   1.405       .  A
C551        C552   1.401       .  A
C551        H555   1.083       .  S
C552        H556   1.082       .  S
C557        C558   1.401       .  A
C557        C562   1.392       .  A
C557        H567   1.083       .  S
C558        C563   1.482       .  S
C558        C559   1.408       .  A
C559        C560   1.401       .  A
C559        H564   1.083       .  S
C560        C561   1.405       .  A
C560        H565   1.083       .  S
C561        C562   1.408       .  A
C562        H566   1.083       .  S
C563        C568   1.408       .  A
C563        C572   1.402       .  A
C568        C569   1.398       .  A
C568        H573   1.083       .  S
C569        C570   1.403       .  A
C569        H574   1.083       .  S
C570        C571   1.408       .  A
C571        C572   1.395       .  A
C571        H575   1.083       .  S
C572        H576   1.083       .  S
C577        C578   1.403       .  A
C577        C582   1.394       .  A
C577        H587   1.083       .  S
C578        C583   1.482       .  S
C578        C579   1.408       .  A
C579        C580   1.400       .  A
C579        H584   1.083       .  S
C580        C581   1.403       .  A
C580        H585   1.083       .  S
C581        C582   1.405       .  A
C582        H586   1.083       .  S
C583        C588   1.408       .  A
C583        C592   1.402       .  A
C588        C589   1.402       .  A
C588        H593   1.083       .  S
C589        C590   1.404       .  A
C589        H594   1.083       .  S
C590        C591   1.406       .  A
C591        C592   1.393       .  A
C591        H595   1.083       .  S
C592        H596   1.083       .  S
C597        C598   1.408       .  A
C597        C602   1.393       .  A
C597        H607   1.082       .  S
C598        C603   1.492       .  S
C598        C599   1.409       .  A
C599        C600   1.402       .  A
C599        H604   1.082       .  S
C600        C601   1.404       .  A
C600        H605   1.083       .  S
C601        C602   1.400       .  A
C602        H606   1.083       .  S
C603        C608   1.406       .  A
C603        C612   1.410       .  A
C608        C609   1.391       .  A
C608        H613   1.082       .  S
C609        C610   1.402       .  A
C609        H614   1.083       .  S
C610        C611   1.405       .  A
C611        C612   1.405       .  A
C611        H615   1.083       .  S
C612        H616   1.082       .  S
C617        C618   1.408       .  A
C617        C622   1.405       .  A
C617        H627   1.083       .  S
C618        C623   1.489       .  S
C618        C619   1.404       .  A
C619        C620   1.393       .  A
C619        H624   1.083       .  S
C620        C621   1.406       .  A
C620        H625   1.083       .  S
C621        C622   1.408       .  A
C622        H626   1.083       .  S
C623        C628   1.407       .  A
C623        C632   1.405       .  A
C628        C629   1.405       .  A
C628        H633   1.083       .  S
C629        C630   1.408       .  A
C629        H634   1.083       .  S
C630        C631   1.405       .  A
C631        C632   1.394       .  A
C631        H635   1.083       .  S
C632        H636   1.083       .  S
C637        C638   1.411       .  A
C637        C642   1.400       .  A
C637        H647   1.082       .  S
C638        C643   1.508       .  S
C638        C639   1.413       .  A
C639        C640   1.408       .  A
C639        H644   1.082       .  S
C640        C641   1.405       .  A
C640        H645   1.083       .  S
C641        C642   1.404       .  A
C642        H646   1.083       .  S
C643        C648   1.409       .  A
C643        C652   1.413       .  A
C648        C649   1.399       .  A
C648        H653   1.082       .  S
C649        C650   1.407       .  A
C649        H654   1.083       .  S
C650        C651   1.407       .  A
C651        C652   1.409       .  A
C651        H655   1.083       .  S
C652        H656   1.082       .  S
C657        C658   1.409       .  A
C657        C662   1.401       .  A
C657        H667   1.083       .  S
C658        C663   1.491       .  S
C658        C659   1.405       .  A
C659        C660   1.397       .  A
C659        H664   1.083       .  S
C660        C661   1.407       .  A
C660        H665   1.083       .  S
C661        C662   1.406       .  A
C662        H666   1.083       .  S
C663        C668   1.405       .  A
C663        C672   1.408       .  A
C668        C669   1.399       .  A
C668        H673   1.083       .  S
C669        C670   1.409       .  A
C669        H674   1.083       .  S
C670        C671   1.405       .  A
C671        C672   1.399       .  A
C671        H675   1.083       .  S
C672        H676   1.083       .  S
C677        C678   1.403       .  A
C677        C682   1.394       .  A
C677        H687   1.082       .  S
C678        C683   1.490       .  S
C678        C679   1.410       .  A
C679        C680   1.402       .  A
C679        H684   1.082       .  S
C680        C681   1.405       .  A
C680        H685   1.083       .  S
C681        C682   1.408       .  A
C682        H686   1.083       .  S
C683        C688   1.410       .  A
C683        C692   1.404       .  A
C688        C689   1.401       .  A
C688        H693   1.082       .  S
C689        C690   1.403       .  A
C689        H694   1.083       .  S
C690        C691   1.407       .  A
C691        C692   1.396       .  A
C691        H695   1.083       .  S
C692        H696   1.083       .  S
C697        C698   1.408       .  A
C697        C702   1.406       .  A
C697        H707   1.083       .  S
C698        C703   1.494       .  S
C698        C699   1.407       .  A
C699        C700   1.396       .  A
C699        H704   1.083       .  S
C700        C701   1.405       .  A
C700        H705   1.083       .  S
C701        C702   1.409       .  A
C702        H706   1.083       .  S
C703        C708   1.409       .  A
C703        C712   1.406       .  A
C708        C709   1.407       .  A
C708        H713   1.083       .  S
C709        C710   1.407       .  A
C709        H714   1.083       .  S
C710        C711   1.405       .  A
C711        C712   1.395       .  A
C711        H715   1.083       .  S
C712        H716   1.083       .  S
C717        C718   1.405       .  A
C717        C722   1.396       .  A
C717        H727   1.083       .  S
C718        C723   1.475       .  S
C718        C719   1.402       .  A
C719        C720   1.395       .  A
C719        H724   1.083       .  S
C720        C721   1.405       .  A
C720        H725   1.083       .  S
C721        C722   1.403       .  A
C722        H726   1.083       .  S
C723        C728   1.402       .  A
C723        C732   1.404       .  A
C728        C729   1.394       .  A
C728        H733   1.083       .  S
C729        C730   1.405       .  A
C729        H734   1.083       .  S
C730        C731   1.405       .  A
C731        C732   1.397       .  A
C731        H735   1.083       .  S
C732        H736   1.083       .  S
C737        C738   1.403       .  A
C737        C742   1.393       .  A
C737        H747   1.083       .  S
C738        C743   1.480       .  S
C738        C739   1.404       .  A
C739        C740   1.402       .  A
C739        H744   1.083       .  S
C740        C741   1.408       .  A
C740        H745   1.083       .  S
C741        C742   1.405       .  A
C742        H746   1.083       .  S
C743        C748   1.403       .  A
C743        C752   1.404       .  A
C748        C749   1.394       .  A
C748        H753   1.083       .  S
C749        C750   1.406       .  A
C749        H754   1.083       .  S
C750        C751   1.408       .  A
C751        C752   1.402       .  A
C751        H755   1.083       .  S
C752        H756   1.083       .  S
C757        C758   1.408       .  A
C757        C762   1.398       .  A
C757        H767   1.083       .  S
C758        C763   1.499       .  S
C758        C759   1.407       .  A
C759        C760   1.409       .  A
C759        H764   1.083       .  S
C760        C761   1.411       .  A
C760        H765   1.083       .  S
C761        C762   1.407       .  A
C762        H766   1.083       .  S
C763        C768   1.402       .  A
C763        C772   1.413       .  A
C768        C769   1.392       .  A
C768        H773   1.083       .  S
C769        C770   1.410       .  A
C769        H774   1.083       .  S
C770        C771   1.409       .  A
C771        C772   1.415       .  A
C771        H775   1.083       .  S
C772        H776   1.083       .  S
C777        C778   1.403   1_545  A
C777        C782   1.398       .  A
C777        H787   1.083       .  S
C778        C783   1.486       .  S
C778        C779   1.407       .  A
C779        C780   1.404       .  A
C779        H784   1.083       .  S
C780        C781   1.406       .  A
C780        H785   1.083       .  S
C781        C782   1.407   1_565  A
C782        H786   1.083       .  S
C783        C788   1.407   1_565  A
C783        C792   1.403       .  A
C788        C789   1.403       .  A
C788        H793   1.083       .  S
C789        C790   1.405   1_545  A
C789        H794   1.083       .  S
C790        C791   1.408       .  A
C791        C792   1.399       .  A
C791        H795   1.083       .  S
C792        H796   1.083       .  S
C797        C798   1.406       .  A
C797        C802   1.399       .  A
C797        H807   1.083       .  S
C798        C803   1.492       .  S
C798        C799   1.408   1_565  A
C799        C800   1.403       .  A
C799        H804   1.083       .  S
C800        C801   1.407   1_545  A
C800        H805   1.083       .  S
C801        C802   1.408       .  A
C802        H806   1.083       .  S
C803        C808   1.406   1_565  A
C803        C812   1.409       .  A
C808        C809   1.399       .  A
C808        H813   1.083       .  S
C809        C810   1.405   1_545  A
C809        H814   1.083       .  S
C810        C811   1.405       .  A
C811        C812   1.402       .  A
C811        H815   1.083       .  S
C812        H816   1.083       .  S
C817        C818   1.407       .  A
C817        C822   1.396       .  A
C817        H827   1.083       .  S
C818        C823   1.496       .  S
C818        C819   1.409       .  A
C819        C820   1.406       .  A
C819        H824   1.082       .  S
C820        C821   1.409       .  A
C820        H825   1.083       .  S
C821        C822   1.405       .  A
C822        H826   1.083       .  S
C823        C828   1.407       .  A
C823        C832   1.410       .  A
C828        C829   1.395       .  A
C828        H833   1.083       .  S
C829        C830   1.405       .  A
C829        H834   1.083       .  S
C830        C831   1.407       .  A
C831        C832   1.407       .  A
C831        H835   1.083       .  S
C832        H836   1.082       .  S
C837        C838   1.401       .  A
C837        C842   1.396   1_554  A
C837        H847   1.083   1_554  S
C838        C843   1.475       .  S
C838        C839   1.405       .  A
C839        C840   1.397       .  A
C839        H844   1.083       .  S
C840        C841   1.405       .  A
C840        H845   1.083       .  S
C841        C842   1.406   1_554  A
C842        H846   1.083       .  S
C843        C848   1.399       .  A
C843        C852   1.405       .  A
C848        C849   1.391       .  A
C848        H853   1.083       .  S
C849        C850   1.407       .  A
C849        H854   1.083       .  S
C850        C851   1.406       .  A
C851        C852   1.402       .  A
C851        H855   1.083       .  S
C852        H856   1.083       .  S
C857        C858   1.404       .  A
C857        C862   1.392       .  A
C857        H867   1.083       .  S
C858        C863   1.485       .  S
C858        C859   1.407       .  A
C859        C860   1.405       .  A
C859        H864   1.083       .  S
C860        C861   1.407       .  A
C860        H865   1.083       .  S
C861        C862   1.403       .  A
C862        H866   1.083       .  S
C863        C868   1.404       .  A
C863        C872   1.407       .  A
C868        C869   1.390       .  A
C868        H873   1.083       .  S
C869        C870   1.403       .  A
C869        H874   1.083       .  S
C870        C871   1.408       .  A
C871        C872   1.407       .  A
C871        H875   1.083       .  S
C872        H876   1.083       .  S
C877        C878   1.405       .  A
C877        C882   1.402       .  A
C877        H887   1.083       .  S
C878        C883   1.478       .  S
C878        C879   1.402       .  A
C879        C880   1.392       .  A
C879        H884   1.083       .  S
C880        C881   1.404       .  A
C880        H885   1.083       .  S
C881        C882   1.405       .  A
C882        H886   1.083       .  S
C883        C888   1.405       .  A
C883        C892   1.401       .  A
C888        C889   1.402       .  A
C888        H893   1.083       .  S
C889        C890   1.406       .  A
C889        H894   1.083       .  S
C890        C891   1.407       .  A
C891        C892   1.392       .  A
C891        H895   1.083   1_556  S
C892        H896   1.083       .  S
C897        C898   1.411       .  A
C897        C902   1.402       .  A
C897        H907   1.082       .  S
C898        C903   1.491       .  S
C898        C899   1.407       .  A
C899        C900   1.393       .  A
C899        H904   1.082       .  S
C900        C901   1.400       .  A
C900        H905   1.084       .  S
C901        C902   1.402       .  A
C902        H906   1.083       .  S
C903        C908   1.408       .  A
C903        C912   1.408       .  A
C908        C909   1.400       .  A
C908        H913   1.082       .  S
C909        C910   1.406       .  A
C909        H914   1.083       .  S
C910        C911   1.403       .  A
C911        C912   1.394       .  A
C911        H915   1.083       .  S
C912        H916   1.082       .  S
C917        C918   1.412       .  A
C917        C922   1.403       .  A
C917        H927   1.082       .  S
C918        C923   1.494       .  S
C918        C919   1.404       .  A
C919        C920   1.395       .  A
C919        H924   1.082       .  S
C920        C921   1.409       .  A
C920        H925   1.083       .  S
C921        C922   1.404       .  A
C922        H926   1.083       .  S
C923        C928   1.404       .  A
C923        C932   1.411       .  A
C928        C929   1.396       .  A
C928        H933   1.082       .  S
C929        C930   1.408       .  A
C929        H934   1.083       .  S
C930        C931   1.405       .  A
C931        C932   1.403       .  A
C931        H935   1.083       .  S
C932        H936   1.082       .  S
C937        C938   1.406       .  A
C937        C942   1.400       .  A
C937        H947   1.083       .  S
C938        C943   1.492       .  S
C938        C939   1.407       .  A
C939        C940   1.400       .  A
C939        H944   1.083       .  S
C940        C941   1.406       .  A
C940        H945   1.083       .  S
C941        C942   1.408       .  A
C942        H946   1.083       .  S
C943        C948   1.407       .  A
C943        C952   1.407       .  A
C948        C949   1.401       .  A
C948        H953   1.083       .  S
C949        C950   1.408       .  A
C949        H954   1.083       .  S
C950        C951   1.405       .  A
C951        C952   1.400       .  A
C951        H955   1.083       .  S
C952        H956   1.083       .  S
C957        C958   1.407       .  A
C957        C962   1.408       .  A
C957        H967   1.083       .  S
C958        C963   1.485       .  S
C958        C959   1.402       .  A
C959        C960   1.390       .  A
C959        H964   1.083       .  S
C960        C961   1.405       .  A
C960        H965   1.083       .  S
C961        C962   1.409       .  A
C962        H966   1.083       .  S
C963        C968   1.407       .  A
C963        C972   1.403       .  A
C968        C969   1.406       .  A
C968        H973   1.083       .  S
C969        C970   1.408       .  A
C969        H974   1.083       .  S
C970        C971   1.404       .  A
C971        C972   1.392       .  A
C971        H975   1.083       .  S
C972        H976   1.083       .  S
C977        C978   1.405       .  A
C977        C982   1.393       .  A
C977        H987   1.082       .  S
C978        C983   1.502       .  S
C978        C979   1.413       .  A
C979        C980   1.413       .  A
C979        H984   1.082       .  S
C980        C981   1.408       .  A
C980        H985   1.083       .  S
C981        C982   1.407       .  A
C982        H986   1.083       .  S
C983        C988   1.409       .  A
C983        C992   1.409       .  A
C988        C989   1.398       .  A
C988        H993   1.083       .  S
C989        C990   1.405       .  A
C989        H994   1.083       .  S
C990        C991   1.410       .  A
C991        C992   1.409       .  A
C991        H995   1.083       .  S
C992        H996   1.082       .  S
C997        C998   1.405       .  A
C997       C1002   1.395       .  A
C997       H1007   1.083       .  S
C998       C1003   1.494       .  S
C998        C999   1.409       .  A
C999       C1000   1.407       .  A
C999       H1004   1.083       .  S
C1000      C1001   1.409       .  A
C1000      H1005   1.083       .  S
C1001      C1002   1.407       .  A
C1002      H1006   1.083       .  S
C1003      C1008   1.406       .  A
C1003      C1012   1.409       .  A
C1008      C1009   1.396       .  A
C1008      H1013   1.083       .  S
C1009      C1010   1.405       .  A
C1009      H1014   1.083       .  S
C1010      C1011   1.408       .  A
C1011      C1012   1.407       .  A
C1011      H1015   1.083       .  S
C1012      H1016   1.083       .  S
C1017      C1018   1.402       .  A
C1017      C1022   1.393       .  A
C1017      H1027   1.083       .  S
C1018      C1023   1.485       .  S
C1018      C1019   1.407       .  A
C1019      C1020   1.408       .  A
C1019      H1024   1.083       .  S
C1020      C1021   1.409       .  A
C1020      H1025   1.083       .  S
C1021      C1022   1.407       .  A
C1022      H1026   1.083       .  S
C1023      C1028   1.404       .  A
C1023      C1032   1.405       .  A
C1028      C1029   1.396       .  A
C1028      H1033   1.083       .  S
C1029      C1030   1.407       .  A
C1029      H1034   1.083       .  S
C1030      C1031   1.409       .  A
C1031      C1032   1.405       .  A
C1031      H1035   1.083       .  S
C1032      H1036   1.083       .  S
C1037      C1038   1.403       .  A
C1037      C1042   1.392       .  A
C1037      H1047   1.083       .  S
C1038      C1043   1.479       .  S
C1038      C1039   1.404       .  A
C1039      C1040   1.402       .  A
C1039      H1044   1.083       .  S
C1040      C1041   1.408       .  A
C1040      H1045   1.083       .  S
C1041      C1042   1.406       .  A
C1042      H1046   1.083       .  S
C1043      C1048   1.402       .  A
C1043      C1052   1.406       .  A
C1048      C1049   1.389       .  A
C1048      H1053   1.083       .  S
C1049      C1050   1.405       .  A
C1049      H1054   1.083       .  S
C1050      C1051   1.407       .  A
C1051      C1052   1.404       .  A
C1051      H1055   1.083       .  S
C1052      H1056   1.083       .  S
C1057      C1058   1.402       .  A
C1057      C1062   1.395       .  A
C1057      H1067   1.083       .  S
C1058      C1063   1.485       .  S
C1058      C1059   1.407       .  A
C1059      C1060   1.404       .  A
C1059      H1064   1.083       .  S
C1060      C1061   1.406       .  A
C1060      H1065   1.083       .  S
C1061      C1062   1.407       .  A
C1062      H1066   1.083       .  S
C1063      C1068   1.407       .  A
C1063      C1072   1.403       .  A
C1068      C1069   1.400       .  A
C1068      H1073   1.083       .  S
C1069      C1070   1.404       .  A
C1069      H1074   1.083       .  S
C1070      C1071   1.408       .  A
C1071      C1072   1.399       .  A
C1071      H1075   1.083       .  S
C1072      H1076   1.083       .  S
C1077      C1078   1.403       .  A
C1077      C1082   1.395       .  A
C1077      H1087   1.083       .  S
C1078      C1083   1.491       .  S
C1078      C1079   1.410       .  A
C1079      C1080   1.402       .  A
C1079      H1084   1.082       .  S
C1080      C1081   1.404       .  A
C1080      H1085   1.083       .  S
C1081      C1082   1.409       .  A
C1082      H1086   1.083       .  S
C1083      C1088   1.410       .  A
C1083      C1092   1.403       .  A
C1088      C1089   1.403       .  A
C1088      H1093   1.083       .  S
C1089      C1090   1.405       .  A
C1089      H1094   1.083       .  S
C1090      C1091   1.408       .  A
C1091      C1092   1.395       .  A
C1091      H1095   1.083       .  S
C1092      H1096   1.083       .  S
C1097      C1098   1.407       .  A
C1097      C1102   1.397       .  A
C1097      H1107   1.082       .  S
C1098      C1103   1.493       .  S
C1098      C1099   1.408       .  A
C1099      C1100   1.400       .  A
C1099      H1104   1.082       .  S
C1100      C1101   1.407       .  A
C1100      H1105   1.083       .  S
C1101      C1102   1.406       .  A
C1102      H1106   1.083       .  S
C1103      C1108   1.408       .  A
C1103      C1112   1.407       .  A
C1108      C1109   1.398       .  A
C1108      H1113   1.082       .  S
C1109      C1110   1.405       .  A
C1109      H1114   1.083       .  S
C1110      C1111   1.407       .  A
C1111      C1112   1.400       .  A
C1111      H1115   1.083       .  S
C1112      H1116   1.082       .  S
C1117      C1118   1.406       .  A
C1117      C1122   1.407       .  A
C1117      H1127   1.083       .  S
C1118      C1123   1.488       .  S
C1118      C1119   1.404       .  A
C1119      C1120   1.396       .  A
C1119      H1124   1.083       .  S
C1120      C1121   1.408       .  A
C1120      H1125   1.083       .  S
C1121      C1122   1.409       .  A
C1122      H1126   1.083       .  S
C1123      C1128   1.407       .  A
C1123      C1132   1.403       .  A
C1128      C1129   1.408       .  A
C1128      H1133   1.083       .  S
C1129      C1130   1.409       .  A
C1129      H1134   1.083       .  S
C1130      C1131   1.407       .  A
C1131      C1132   1.394       .  A
C1131      H1135   1.083       .  S
C1132      H1136   1.083       .  S
C1137      C1138   1.407       .  A
C1137      C1142   1.397       .  A
C1137      H1147   1.083       .  S
C1138      C1143   1.492       .  S
C1138      C1139   1.407       .  A
C1139      C1140   1.406       .  A
C1139      H1144   1.083       .  S
C1140      C1141   1.409       .  A
C1140      H1145   1.083       .  S
C1141      C1142   1.405       .  A
C1142      H1146   1.083       .  S
C1143      C1148   1.405       .  A
C1143      C1152   1.409       .  A
C1148      C1149   1.395       .  A
C1148      H1153   1.083       .  S
C1149      C1150   1.405       .  A
C1149      H1154   1.083       .  S
C1150      C1151   1.407       .  A
C1151      C1152   1.408       .  A
C1151      H1155   1.083       .  S
C1152      H1156   1.083       .  S
C1157      C1158   1.408       .  A
C1157      C1162   1.397       .  A
C1157      H1167   1.082       .  S
C1158      C1163   1.501       .  S
C1158      C1159   1.412       .  A
C1159      C1160   1.408       .  A
C1159      H1164   1.082       .  S
C1160      C1161   1.405       .  A
C1160      H1165   1.083       .  S
C1161      C1162   1.405       .  A
C1162      H1166   1.083       .  S
C1163      C1168   1.410       .  A
C1163      C1172   1.410       .  A
C1168      C1169   1.398       .  A
C1168      H1173   1.082       .  S
C1169      C1170   1.404       .  A
C1169      H1174   1.083       .  S
C1170      C1171   1.406       .  A
C1171      C1172   1.405       .  A
C1171      H1175   1.083   1_554  S
C1172      H1176   1.082       .  S
C1177      C1178   1.406       .  A
C1177      C1182   1.395       .  A
C1177      H1187   1.083       .  S
C1178      C1183   1.492       .  S
C1178      C1179   1.408       .  A
C1179      C1180   1.405       .  A
C1179      H1184   1.083       .  S
C1180      C1181   1.408       .  A
C1180      H1185   1.083       .  S
C1181      C1182   1.405       .  A
C1182      H1186   1.083       .  S
C1183      C1188   1.405       .  A
C1183      C1192   1.408       .  A
C1188      C1189   1.394       .  A
C1188      H1193   1.083       .  S
C1189      C1190   1.406       .  A
C1189      H1194   1.083       .  S
C1190      C1191   1.408       .  A
C1191      C1192   1.406       .  A
C1191      H1195   1.083       .  S
C1192      H1196   1.083       .  S
C1197      C1198   1.411       .  A
C1197      C1202   1.405       .  A
C1197      H1207   1.083       .  S
C1198      C1203   1.493       .  S
C1198      C1199   1.403       .  A
C1199      C1200   1.395       .  A
C1199      H1204   1.083       .  S
C1200      C1201   1.408       .  A
C1200      H1205   1.083       .  S
C1201      C1202   1.405       .  A
C1202      H1206   1.083       .  S
C1203      C1208   1.411       .  A
C1203      C1212   1.404       .  A
C1208      C1209   1.404       .  A
C1208      H1213   1.083       .  S
C1209      C1210   1.404       .  A
C1209      H1214   1.083       .  S
C1210      C1211   1.407       .  A
C1211      C1212   1.397       .  A
C1211      H1215   1.083       .  S
C1212      H1216   1.083       .  S
C1217      C1218   1.407       .  A
C1217      C1222   1.394       .  A
C1217      H1227   1.082       .  S
C1218      C1223   1.496       .  S
C1218      C1219   1.411       .  A
C1219      C1220   1.404       .  A
C1219      H1224   1.082       .  S
C1220      C1221   1.405       .  A
C1220      H1225   1.083       .  S
C1221      C1222   1.405       .  A
C1222      H1226   1.083       .  S
C1223      C1228   1.410       .  A
C1223      C1232   1.409       .  A
C1228      C1229   1.398       .  A
C1228      H1233   1.082       .  S
C1229      C1230   1.402       .  A
C1229      H1234   1.083       .  S
C1230      C1231   1.404       .  A
C1231      C1232   1.401       .  A
C1231      H1235   1.083       .  S
C1232      H1236   1.082       .  S
C1237      C1238   1.407       .  A
C1237      C1242   1.391       .  A
C1237      H1247   1.083       .  S
C1238      C1243   1.487       .  S
C1238      C1239   1.407       .  A
C1239      C1240   1.403       .  A
C1239      H1244   1.083       .  S
C1240      C1241   1.406       .  A
C1240      H1245   1.083       .  S
C1241      C1242   1.400       .  A
C1242      H1246   1.083       .  S
C1243      C1248   1.406       .  A
C1243      C1252   1.409       .  A
C1248      C1249   1.391       .  A
C1248      H1253   1.083       .  S
C1249      C1250   1.400       .  A
C1249      H1254   1.084       .  S
C1250      C1251   1.404       .  A
C1251      C1252   1.403       .  A
C1251      H1255   1.083       .  S
C1252      H1256   1.082       .  S
C1257      C1258   1.404   1_655  A
C1257      C1262   1.398       .  A
C1257      H1267   1.083   1_545  S
C1258      C1263   1.488       .  S
C1258      C1259   1.407       .  A
C1259      C1260   1.401       .  A
C1259      H1264   1.083       .  S
C1260      C1261   1.407   1_455  A
C1260      H1265   1.083       .  S
C1261      C1262   1.407       .  A
C1262      H1266   1.083   1_545  S
C1263      C1268   1.407   1_445  A
C1263      C1272   1.404       .  A
C1268      C1269   1.401       .  A
C1268      H1273   1.083       .  S
C1269      C1270   1.407   1_665  A
C1269      H1274   1.083       .  S
C1270      C1271   1.408       .  A
C1271      C1272   1.398       .  A
C1271      H1275   1.083       .  S
C1272      H1276   1.083       .  S
C1277      C1278   1.400   1_554  A
C1277      C1282   1.394   1_545  A
C1277      H1287   1.083   1_544  S
C1278      C1283   1.484       .  S
C1278      C1279   1.408   1_656  A
C1279      C1280   1.404       .  A
C1279      H1284   1.083   1_554  S
C1280      C1281   1.406   1_455  A
C1280      H1285   1.083       .  S
C1281      C1282   1.410   1_545  A
C1282      H1286   1.083       .  S
C1283      C1288   1.407   1_545  A
C1283      C1292   1.401   1_655  A
C1288      C1289   1.401       .  A
C1288      H1293   1.083       .  S
C1289      C1290   1.405   1_565  A
C1289      H1294   1.083       .  S
C1290      C1291   1.409   1_655  A
C1291      C1292   1.397       .  A
C1291      H1295   1.083       .  S
C1292      H1296   1.083       .  S
C1297      C1298   1.404       .  A
C1297      C1302   1.393       .  A
C1297      H1307   1.083       .  S
C1298      C1303   1.487       .  S
C1298      C1299   1.407       .  A
C1299      C1300   1.404       .  A
C1299      H1304   1.083       .  S
C1300      C1301   1.408       .  A
C1300      H1305   1.083       .  S
C1301      C1302   1.406       .  A
C1302      H1306   1.083       .  S
C1303      C1308   1.405       .  A
C1303      C1312   1.406       .  A
C1308      C1309   1.394       .  A
C1308      H1313   1.083       .  S
C1309      C1310   1.405       .  A
C1309      H1314   1.083       .  S
C1310      C1311   1.407       .  A
C1311      C1312   1.403       .  A
C1311      H1315   1.083       .  S
C1312      H1316   1.083       .  S
C1317      C1318   1.401       .  A
C1317      C1322   1.393       .  A
C1317      H1327   1.083       .  S
C1318      C1323   1.483       .  S
C1318      C1319   1.409       .  A
C1319      C1320   1.401       .  A
C1319      H1324   1.083       .  S
C1320      C1321   1.404       .  A
C1320      H1325   1.083       .  S
C1321      C1322   1.408       .  A
C1322      H1326   1.083       .  S
C1323      C1328   1.402       .  A
C1323      C1332   1.408       .  A
C1328      C1329   1.393       .  A
C1328      H1333   1.083       .  S
C1329      C1330   1.407       .  A
C1329      H1334   1.083       .  S
C1330      C1331   1.405       .  A
C1331      C1332   1.402       .  A
C1331      H1335   1.083       .  S
C1332      H1336   1.083       .  S
C1337      C1338   1.406       .  A
C1337      C1342   1.396       .  A
C1337      H1347   1.083       .  S
C1338      C1343   1.493       .  S
C1338      C1339   1.409       .  A
C1339      C1340   1.404       .  A
C1339      H1344   1.083       .  S
C1340      C1341   1.407       .  A
C1340      H1345   1.083       .  S
C1341      C1342   1.404       .  A
C1342      H1346   1.083       .  S
C1343      C1348   1.408       .  A
C1343      C1352   1.407       .  A
C1348      C1349   1.405       .  A
C1348      H1353   1.083       .  S
C1349      C1350   1.408       .  A
C1349      H1354   1.083       .  S
C1350      C1351   1.405       .  A
C1351      C1352   1.395       .  A
C1351      H1355   1.083       .  S
C1352      H1356   1.083       .  S
C1357      C1358   1.409       .  A
C1357      C1362   1.407       .  A
C1357      H1367   1.082       .  S
C1358      C1363   1.496       .  S
C1358      C1359   1.407       .  A
C1359      C1360   1.394       .  A
C1359      H1364   1.082       .  S
C1360      C1361   1.405       .  A
C1360      H1365   1.083       .  S
C1361      C1362   1.408       .  A
C1362      H1366   1.083       .  S
C1363      C1368   1.410       .  A
C1363      C1372   1.408       .  A
C1368      C1369   1.406       .  A
C1368      H1373   1.082       .  S
C1369      C1370   1.404       .  A
C1369      H1374   1.083       .  S
C1370      C1371   1.402       .  A
C1371      C1372   1.395       .  A
C1371      H1375   1.084       .  S
C1372      H1376   1.083       .  S
