geometry optimzed in LAMMPS
_audit_creation_date              2020-12-01 
_audit_creation_method            'lammps2cif' 
_symmetry_space_group_name_H-M    'P1' 
_symmetry_Int_Tables_number       1 
_symmetry_cell_setting            triclinic 
loop_ 
_symmetry_equiv_pos_as_xyz 
  x,y,z 
_cell_length_a                    48.25825463 
_cell_length_b                    48.25859283629195 
_cell_length_c                    24.231278215260545 
_cell_angle_alpha                 85.97466513089212 
_cell_angle_beta                  94.03556744211203 
_cell_angle_gamma                 120.15427830293282 
loop_ 
_atom_site_label 
_atom_site_type_symbol 
_atom_site_fract_x 
_atom_site_fract_y 
_atom_site_fract_z 
_atom_site_charge 
O1          O  0.38289765  0.09736996  0.21552096    -0.83800
O2          O  0.42146948  0.14515984  0.14436692    -0.80900
C3          C  0.43493390  0.16863143  0.17606852     0.99600
O4          O  0.45657870  0.17131603  0.21106577    -0.80900
O5          O  0.49076666  0.15374229  0.28665065    -0.83500
C6          C  0.47226126  0.14204918  0.32672547     1.04200
O7          O  0.44606308  0.11630504  0.32237984    -0.76300
O8          O  0.39186467  0.06631639  0.27587746    -0.76500
C9          C  0.37428052  0.07744162  0.25571108     1.04100
O10         O  0.39555090  0.05198467  0.16851147    -0.83800
O11         O  0.43943701  0.10159046  0.10286966    -0.80900
C12         C  0.46344514  0.12768736  0.08869274     0.99700
O13         O  0.47716939  0.15046861  0.12161387    -0.80900
O14         O  0.00479629  0.12649112  0.19840106    -0.83500
C15         C  0.00649877  0.10804485  0.23602531     1.04100
O16         O  0.48635940  0.09606648  0.27403419    -0.76300
O17         O  0.43279476  0.04961707  0.22250112    -0.76500
C18         C  0.40915065  0.03677210  0.18906332     1.04100
Cr19       Cr  0.41229608  0.09979987  0.16140983     1.93700
Cr20       Cr  0.47968701  0.14780715  0.20500875     1.93200
Cr21       Cr  0.43962001  0.08416075  0.26960478     1.39100
O22         O  0.44381036  0.11045177  0.21208064    -1.21600
O23         O  0.33370370  0.26820879  0.32512379    -0.83800
O24         O  0.37753606  0.27041632  0.25620465    -0.80900
C25         C  0.39552722  0.27869588  0.21597728     0.99600
O26         O  0.40741897  0.30667482  0.19399950    -0.80900
O27         O  0.35598837  0.30745108  0.13950798    -0.83500
C28         C  0.33019276  0.30787627  0.13127666     1.04200
O29         O  0.31953769  0.31700497  0.16821057    -0.76300
O30         O  0.30375634  0.27254452  0.25634409    -0.76500
C31         C  0.30760740  0.25670022  0.29669355     1.04100
O32         O  0.37965741  0.33189438  0.35735989    -0.83800
O33         O  0.42558899  0.33198115  0.29672781    -0.80900
C34         C  0.43982606  0.36000596  0.27481355     0.99700
O35         O  0.42639830  0.36843148  0.23637342    -0.80900
O36         O  0.37854447  0.37147034  0.17339583    -0.83500
C37         C  0.36774650  0.38336638  0.20480861     1.04100
O38         O  0.35164456  0.36739922  0.24584865    -0.76300
O39         O  0.33114753  0.32301520  0.33393577    -0.76500
C40         C  0.35468037  0.33198371  0.36862679     1.04100
Cr41       Cr  0.37818371  0.30201786  0.30436567     1.93700
Cr42       Cr  0.39018744  0.33710129  0.19043054     1.93200
Cr43       Cr  0.32930923  0.31995730  0.25085729     1.39100
O44         O  0.36583530  0.31967578  0.24854606    -1.21600
O45         O  0.20663308  0.09389186  0.28730110    -0.83800
O46         O  0.21247537  0.05096101  0.23017641    -0.80900
C47         C  0.22252604  0.03774810  0.26715793     0.99600
O48         O  0.20400558  0.01748517  0.30197287    -0.80900
O49         O  0.15509831  0.48880346  0.37393819    -0.83500
C50         C  0.16489131  0.00956422  0.41044519     1.04200
O51         O  0.16684315  0.03629024  0.39940007    -0.76300
O52         O  0.16911519  0.08851816  0.34031203    -0.76500
C53         C  0.19694781  0.10504319  0.32159477     1.04100
O54         O  0.14646450  0.07896740  0.23048970    -0.83800
O55         O  0.14974201  0.03213423  0.17736146    -0.80900
C56         C  0.15093404  0.00731685  0.16973057     0.99700
O57         O  0.15945573  0.49405069  0.20875533    -0.80900
O58         O  0.11014072  0.47183837  0.28073206    -0.83500
C59         C  0.09244805  0.47235920  0.31594097     1.04100
O60         O  0.10346848  0.49433740  0.35064192    -0.76300
O61         O  0.10911959  0.04513786  0.28645150    -0.76500
C62         C  0.11862168  0.06687679  0.24911093     1.04100
Cr63       Cr  0.17723394  0.06170589  0.23511481     1.93700
Cr64       Cr  0.15717705  0.49573117  0.29106171     1.93200
Cr65       Cr  0.13871761  0.04050089  0.34057285     1.39100
O66         O  0.15767973  0.03275141  0.28876861    -1.21600
O67         O  0.27112359  0.33076705  0.67366382    -0.83800
O68         O  0.27333931  0.37460762  0.74258521    -0.80900
C69         C  0.28162196  0.39260134  0.78281911     0.99600
O70         O  0.30960121  0.40448998  0.80481239    -0.80900
O71         O  0.31038080  0.35306659  0.85930526    -0.83500
C72         C  0.31080010  0.32726863  0.86753197     1.04200
O73         O  0.31992007  0.31660582  0.83059701    -0.76300
O74         O  0.27545174  0.30082553  0.74245136    -0.76500
C75         C  0.25960830  0.30467637  0.70209567     1.04100
O76         O  0.33481330  0.37671056  0.64146401    -0.83800
O77         O  0.33490380  0.42264999  0.70209137    -0.80900
C78         C  0.36293055  0.43688623  0.72401103     0.99700
O79         O  0.37135642  0.42346147  0.76245611    -0.80900
O80         O  0.37439610  0.37561258  0.82542543    -0.83500
C81         C  0.38628574  0.36480785  0.79401332     1.04100
O82         O  0.37030877  0.34869582  0.75297541    -0.76300
O83         O  0.32592003  0.32819790  0.66487683    -0.76500
C84         C  0.33489884  0.35173146  0.63019475     1.04100
Cr85       Cr  0.30493762  0.37524593  0.69443991     1.93700
Cr86       Cr  0.34002724  0.38725723  0.80838837     1.93200
Cr87       Cr  0.32286665  0.32636889  0.74795314     1.39100
O88         O  0.32259395  0.36289917  0.75026701    -1.21600
O89         O  0.10029763  0.37998436  0.78322081    -0.83800
O90         O  0.14810185  0.41856875  0.85437275    -0.80900
C91         C  0.17156909  0.43203223  0.82267269     0.99600
O92         O  0.17424737  0.45367444  0.78768391    -0.80900
O93         O  0.15665704  0.48785465  0.71211759    -0.83500
C94         C  0.14496348  0.46934623  0.67203751     1.04200
O95         O  0.11922362  0.44314537  0.67637243    -0.76300
O96         O  0.06923718  0.38894464  0.72286153    -0.76500
C97         C  0.08035818  0.37135869  0.74303528     1.04100
O98         O  0.05492164  0.39264482  0.83023650    -0.83800
O99         O  0.10453769  0.43653783  0.89588349    -0.80900
C100        C  0.13063779  0.46054595  0.91006804     0.99700
O101        O  0.15341314  0.47426749  0.87714925    -0.80900
O102        O  0.12941438  0.00188240  0.80037522    -0.83500
C103        C  0.11096326  0.00358145  0.76274952     1.04100
O104        O  0.09898326  0.48343970  0.72473166    -0.76300
O105        O  0.05254056  0.42987594  0.77624341    -0.76500
C106        C  0.03970372  0.40623961  0.80968230     1.04100
Cr107      Cr  0.10273804  0.40939119  0.83733584     1.93700
Cr108      Cr  0.15073540  0.47677863  0.79375465     1.93200
Cr109      Cr  0.08708169  0.43670146  0.72914468     1.39100
O110        O  0.11338058  0.44089918  0.78667191    -1.21600
O111        O  0.09678494  0.20371079  0.71151016    -0.83800
O112        O  0.05384941  0.20954148  0.76863445    -0.80900
C113        C  0.04062552  0.21958339  0.73165583     0.99600
O114        O  0.02036061  0.20105651  0.69683673    -0.80900
O115        O  0.49168400  0.15214425  0.62485175    -0.83500
C116        C  0.01244233  0.16194095  0.58835027     1.04200
O117        O  0.03917198  0.16389886  0.59939629    -0.76300
O118        O  0.09141469  0.16619456  0.65848482    -0.76500
C119        C  0.10793490  0.19402802  0.67720777     1.04100
O120        O  0.08188331  0.14355027  0.76830521    -0.83800
O121        O  0.03504563  0.14681468  0.82142992    -0.80900
C122        C  0.01022195  0.14799413  0.82905848     0.99700
O123        O  0.49694771  0.15651039  0.79003783    -0.80900
O124        O  0.47474212  0.10719443  0.71804795    -0.83500
C125        C  0.47526605  0.08950138  0.68283920     1.04100
O126        O  0.49723889  0.10052427  0.64813821    -0.76300
O127        O  0.04805458  0.10619791  0.71232972    -0.76500
C128        C  0.06979681  0.11570643  0.74967592     1.04100
Cr129      Cr  0.06460776  0.17430892  0.76368651     1.93700
Cr130      Cr  0.49862105  0.15422931  0.70773112     1.93200
Cr131      Cr  0.04339970  0.13578468  0.65821644     1.39100
O132        O  0.03564868  0.15474515  0.71002538    -1.21600
C133        C  0.04821771  0.25243162  0.72916687    -0.17000
C134        C  0.05394752  0.27982211  0.72410385     0.07100
C135        C  0.06109162  0.31205017  0.72018362     0.08900
C136        C  0.06872764  0.33976802  0.72414844    -0.17800
C137        C  0.08228583  0.09491841  0.76688753    -0.17000
C138        C  0.09051544  0.07502613  0.77047561     0.07100
C139        C  0.09812689  0.05048742  0.76725112     0.08900
C140        C  0.10389496  0.02912598  0.76340001    -0.17800
C141        C  0.38526846  0.46923812  0.70648850    -0.17000
C142        C  0.40513387  0.49661715  0.69504838     0.07100
C143        C  0.42927547  0.02885702  0.68584425     0.08900
C144        C  0.45027089  0.05652718  0.68200175    -0.17800
C145        C  0.22826462  0.27886843  0.68701225    -0.17000
C146        C  0.20151531  0.25780562  0.67484318     0.07100
C147        C  0.16923698  0.23383573  0.66488760     0.08900
C148        C  0.14095252  0.21442619  0.66418237    -0.17800
C149        C  0.25928908  0.40076853  0.80207125    -0.17000
C150        C  0.23967897  0.40753645  0.81429921     0.07100
C151        C  0.21605840  0.41557975  0.82348002     0.08900
C152        C  0.19565565  0.42280730  0.82627171    -0.17800
C153        C  0.41835138  0.37064214  0.80596741    -0.17000
C154        C  0.44567140  0.37650217  0.81472417     0.07100
C155        C  0.47828245  0.38482665  0.82112314     0.08900
C156        C  0.00650054  0.39357510  0.82060851    -0.17800
C157        C  0.15946184  0.47918560  0.61932602    -0.17000
C158        C  0.16737665  0.48668185  0.57211350     0.07100
C159        C  0.17151046  0.49484879  0.51511017     0.08900
C160        C  0.17071995  0.00160009  0.46646039    -0.17800
C161        C  0.14463032  0.49538924  0.11508591    -0.17000
C162        C  0.14099287  0.48733426  0.06800250     0.07100
C163        C  0.13775098  0.47890381  0.01243907     0.08900
C164        C  0.13493619  0.47128513  0.96524366    -0.17800
C165        C  0.30410065  0.31191396  0.92187141    -0.17000
C166        C  0.30298618  0.30396247  0.97042521     0.07100
C167        C  0.30688352  0.30006233  0.02837533     0.08900
C168        C  0.31483422  0.30117566  0.07693252    -0.17800
C169        C  0.35213397  0.33990282  0.42341388    -0.17000
C170        C  0.35009388  0.34406847  0.47115282     0.07100
C171        C  0.34700281  0.34714839  0.52768345     0.08900
C172        C  0.34282639  0.34918310  0.57541937    -0.17800
C173        C  0.28179267  0.22536432  0.31177229    -0.17000
C174        C  0.26072293  0.19862117  0.32394230     0.07100
C175        C  0.23674847  0.16634916  0.33390443     0.08900
C176        C  0.21733785  0.13806382  0.33461712    -0.17800
C177        C  0.47218380  0.38234059  0.29233549    -0.17000
C178        C  0.49956689  0.40220686  0.30376397     0.07100
C179        C  0.03180893  0.42635276  0.31295033     0.08900
C180        C  0.05947853  0.44735458  0.31678076    -0.17800
C181        C  0.48209778  0.15654912  0.37944206    -0.17000
C182        C  0.48958226  0.16445531  0.42666819     0.07100
C183        C  0.49773188  0.16857287  0.48368270     0.08900
C184        C  0.00447451  0.16777201  0.53233640    -0.17800
C185        C  0.47418266  0.13197749  0.03352380    -0.17000
C186        C  0.48180239  0.13479021  0.98633323     0.07100
C187        C  0.49023612  0.13803590  0.93077529     0.08900
C188        C  0.49829362  0.14168062  0.88369753    -0.17800
C189        C  0.42570698  0.19271730  0.17246589    -0.17000
C190        C  0.41848344  0.21312145  0.17526688     0.07100
C191        C  0.41044761  0.23674658  0.18446712     0.08900
C192        C  0.40368709  0.25635903  0.19671117    -0.17800
C193        C  0.39648595  0.00356708  0.17814380    -0.17000
C194        C  0.38774189  0.47535000  0.17764483     0.07100
C195        C  0.37942614  0.44274209  0.18406903     0.08900
C196        C  0.37357452  0.41542843  0.19284401    -0.17800
C197        C  0.25537560  0.04534641  0.26965136    -0.17000
C198        C  0.28276579  0.05107479  0.27470751     0.07100
C199        C  0.31499030  0.05820819  0.27860772     0.08900
C200        C  0.34270137  0.06582965  0.27461990    -0.17800
C201        C  0.03204452  0.10097822  0.23538147    -0.17000
C202        C  0.05340359  0.09520800  0.23153419     0.07100
C203        C  0.07793863  0.08759169  0.22831103     0.08900
C204        C  0.09782881  0.07936014  0.23189996    -0.17800
O205        O  0.38289772  0.59737007  0.21552060    -0.83800
O206        O  0.42146951  0.64515985  0.14436698    -0.80900
C207        C  0.43493365  0.66863146  0.17606824     0.99600
O208        O  0.45657877  0.67131600  0.21106588    -0.80900
O209        O  0.49076679  0.65374232  0.28665057    -0.83500
C210        C  0.47226080  0.64204874  0.32672559     1.04200
O211        O  0.44606316  0.61630531  0.32237981    -0.76300
O212        O  0.39186473  0.56631653  0.27587747    -0.76500
C213        C  0.37428010  0.57744124  0.25571164     1.04100
O214        O  0.39555090  0.55198467  0.16851142    -0.83800
O215        O  0.43943701  0.60159039  0.10286977    -0.80900
C216        C  0.46344538  0.62768774  0.08869291     0.99700
O217        O  0.47716938  0.65046856  0.12161375    -0.80900
O218        O  0.00479621  0.62649112  0.19840097    -0.83500
C219        C  0.00649904  0.60804478  0.23602529     1.04100
O220        O  0.48635945  0.59606657  0.27403414    -0.76300
O221        O  0.43279472  0.54961713  0.22250130    -0.76500
C222        C  0.40915055  0.53677214  0.18906333     1.04100
Cr223      Cr  0.41229613  0.59979992  0.16140982     1.93700
Cr224      Cr  0.47968703  0.64780719  0.20500878     1.93200
Cr225      Cr  0.43961995  0.58416078  0.26960485     1.39100
O226        O  0.44381042  0.61045179  0.21208062    -1.21600
O227        O  0.33370369  0.76820869  0.32512383    -0.83800
O228        O  0.37753599  0.77041631  0.25620476    -0.80900
C229        C  0.39552746  0.77869603  0.21597684     0.99600
O230        O  0.40741886  0.80667479  0.19399951    -0.80900
O231        O  0.35598834  0.80745107  0.13950819    -0.83500
C232        C  0.33019243  0.80787616  0.13127660     1.04200
O233        O  0.31953775  0.81700510  0.16821077    -0.76300
O234        O  0.30375633  0.77254458  0.25634432    -0.76500
C235        C  0.30760761  0.75670048  0.29669348     1.04100
O236        O  0.37965726  0.83189433  0.35736020    -0.83800
O237        O  0.42558905  0.83198129  0.29672772    -0.80900
C238        C  0.43982571  0.86000544  0.27481371     0.99700
O239        O  0.42639820  0.86843146  0.23637334    -0.80900
O240        O  0.37854435  0.87147024  0.17339589    -0.83500
C241        C  0.36774669  0.88336689  0.20480834     1.04100
O242        O  0.35164460  0.86739916  0.24584904    -0.76300
O243        O  0.33114745  0.82301521  0.33393577    -0.76500
C244        C  0.35468103  0.83198376  0.36862703     1.04100
Cr245      Cr  0.37818372  0.80201783  0.30436572     1.93700
Cr246      Cr  0.39018733  0.83710126  0.19043059     1.93200
Cr247      Cr  0.32930927  0.81995737  0.25085747     1.39100
O248        O  0.36583523  0.81967572  0.24854615    -1.21600
O249        O  0.20663325  0.59389202  0.28730108    -0.83800
O250        O  0.21247538  0.55096096  0.23017653    -0.80900
C251        C  0.22252625  0.53774843  0.26715743     0.99600
O252        O  0.20400546  0.51748509  0.30197301    -0.80900
O253        O  0.15509836  0.98880348  0.37393829    -0.83500
C254        C  0.16489143  0.50956468  0.41044530     1.04200
O255        O  0.16684320  0.53629020  0.39940006    -0.76300
O256        O  0.16911538  0.58851839  0.34031195    -0.76500
C257        C  0.19694740  0.60504289  0.32159493     1.04100
O258        O  0.14646467  0.57896743  0.23048955    -0.83800
O259        O  0.14974210  0.53213438  0.17736148    -0.80900
C260        C  0.15093412  0.50731651  0.16973047     0.99700
O261        O  0.15945570  0.99405062  0.20875541    -0.80900
O262        O  0.11014071  0.97183830  0.28073202    -0.83500
C263        C  0.09244806  0.97235914  0.31594099     1.04100
O264        O  0.10346844  0.99433731  0.35064189    -0.76300
O265        O  0.10911971  0.54513798  0.28645163    -0.76500
C266        C  0.11862128  0.56687681  0.24911096     1.04100
Cr267      Cr  0.17723400  0.56170596  0.23511474     1.93700
Cr268      Cr  0.15717703  0.99573110  0.29106170     1.93200
Cr269      Cr  0.13871763  0.54050097  0.34057288     1.39100
O270        O  0.15767977  0.53275150  0.28876856    -1.21600
O271        O  0.27112376  0.83076725  0.67366372    -0.83800
O272        O  0.27333927  0.87460765  0.74258528    -0.80900
C273        C  0.28162221  0.89260138  0.78281901     0.99600
O274        O  0.30960115  0.90448998  0.80481243    -0.80900
O275        O  0.31038078  0.85306652  0.85930524    -0.83500
C276        C  0.31080004  0.82726862  0.86753200     1.04200
O277        O  0.31992007  0.81660577  0.83059698    -0.76300
O278        O  0.27545181  0.80082558  0.74245135    -0.76500
C279        C  0.25960770  0.80467558  0.70209586     1.04100
O280        O  0.33481331  0.87671055  0.64146414    -0.83800
O281        O  0.33490389  0.92265001  0.70209140    -0.80900
C282        C  0.36293033  0.93688586  0.72401116     0.99700
O283        O  0.37135645  0.92346149  0.76245607    -0.80900
O284        O  0.37439606  0.87561256  0.82542551    -0.83500
C285        C  0.38628608  0.86480779  0.79401316     1.04100
O286        O  0.37030879  0.84869578  0.75297548    -0.76300
O287        O  0.32592005  0.82819787  0.66487684    -0.76500
C288        C  0.33489889  0.85173144  0.63019463     1.04100
Cr289      Cr  0.30493760  0.87524585  0.69443998     1.93700
Cr290      Cr  0.34002723  0.88725715  0.80838834     1.93200
Cr291      Cr  0.32286665  0.82636879  0.74795317     1.39100
O292        O  0.32259391  0.86289907  0.75026703    -1.21600
O293        O  0.10029774  0.87998443  0.78322099    -0.83800
O294        O  0.14810187  0.91856876  0.85437278    -0.80900
C295        C  0.17156883  0.93203233  0.82267266     0.99600
O296        O  0.17424736  0.95367435  0.78768396    -0.80900
O297        O  0.15665695  0.98785452  0.71211752    -0.83500
C298        C  0.14496400  0.96934673  0.67203748     1.04200
O299        O  0.11922344  0.94314517  0.67637252    -0.76300
O300        O  0.06923721  0.88894452  0.72286159    -0.76500
C301        C  0.08035794  0.87135865  0.74303476     1.04100
O302        O  0.05492164  0.89264476  0.83023653    -0.83800
O303        O  0.10453762  0.93653774  0.89588347    -0.80900
C304        C  0.13063814  0.96054620  0.91006783     0.99700
O305        O  0.15341306  0.97426743  0.87714933    -0.80900
O306        O  0.12941443  0.50188240  0.80037523    -0.83500
C307        C  0.11096324  0.50358189  0.76274967     1.04100
O308        O  0.09898324  0.98343976  0.72473179    -0.76300
O309        O  0.05254060  0.92987588  0.77624342    -0.76500
C310        C  0.03970366  0.90623957  0.80968227     1.04100
Cr311      Cr  0.10273799  0.90939117  0.83733588     1.93700
Cr312      Cr  0.15073533  0.97677856  0.79375462     1.93200
Cr313      Cr  0.08708166  0.93670138  0.72914465     1.39100
O314        O  0.11338051  0.94089908  0.78667190    -1.21600
O315        O  0.09678482  0.70371069  0.71151019    -0.83800
O316        O  0.05384932  0.70954148  0.76863448    -0.80900
C317        C  0.04062549  0.71958345  0.73165584     0.99600
O318        O  0.02036058  0.70105649  0.69683663    -0.80900
O319        O  0.49168392  0.65214419  0.62485173    -0.83500
C320        C  0.01244229  0.66194110  0.58835002     1.04200
O321        O  0.03917191  0.66389880  0.59939638    -0.76300
O322        O  0.09141442  0.66619436  0.65848472    -0.76500
C323        C  0.10793534  0.69402857  0.67720793     1.04100
O324        O  0.08188318  0.64355029  0.76830516    -0.83800
O325        O  0.03504555  0.64681465  0.82142992    -0.80900
C326        C  0.01022195  0.64799397  0.82905875     0.99700
O327        O  0.49694769  0.65651035  0.79003785    -0.80900
O328        O  0.47474205  0.60719438  0.71804789    -0.83500
C329        C  0.47526608  0.58950137  0.68283919     1.04100
O330        O  0.49723887  0.60052425  0.64813824    -0.76300
O331        O  0.04805447  0.60619787  0.71232959    -0.76500
C332        C  0.06979697  0.61570639  0.74967615     1.04100
Cr333      Cr  0.06460772  0.67430895  0.76368657     1.93700
Cr334      Cr  0.49862097  0.65422928  0.70773106     1.93200
Cr335      Cr  0.04339961  0.63578463  0.65821642     1.39100
O336        O  0.03564861  0.65474512  0.71002538    -1.21600
C337        C  0.04821759  0.75243148  0.72916686    -0.17000
C338        C  0.05394761  0.77982230  0.72410383     0.07100
C339        C  0.06109148  0.81204998  0.72018358     0.08900
C340        C  0.06872770  0.83976813  0.72414847    -0.17800
C341        C  0.08228576  0.59491879  0.76688736    -0.17000
C342        C  0.09051559  0.57502577  0.77047561     0.07100
C343        C  0.09812689  0.55048804  0.76725120     0.08900
C344        C  0.10389509  0.52912553  0.76339991    -0.17800
C345        C  0.38526871  0.96923842  0.70648839    -0.17000
C346        C  0.40513368  0.99661689  0.69504849     0.07100
C347        C  0.42927539  0.52885689  0.68584428     0.08900
C348        C  0.45027095  0.55652716  0.68200174    -0.17800
C349        C  0.22826542  0.77886914  0.68701258    -0.17000
C350        C  0.20151439  0.75780493  0.67484284     0.07100
C351        C  0.16923784  0.73383637  0.66488772     0.08900
C352        C  0.14095176  0.71442571  0.66418248    -0.17800
C353        C  0.25928885  0.90076865  0.80207129    -0.17000
C354        C  0.23967939  0.90753639  0.81429894     0.07100
C355        C  0.21605818  0.91557998  0.82348009     0.08900
C356        C  0.19565598  0.92280710  0.82627172    -0.17800
C357        C  0.41835116  0.87064215  0.80596732    -0.17000
C358        C  0.44567170  0.87650220  0.81472422     0.07100
C359        C  0.47828231  0.88482667  0.82112312     0.08900
C360        C  0.00650056  0.89357508  0.82060853    -0.17800
C361        C  0.15946166  0.97918552  0.61932639    -0.17000
C362        C  0.16737673  0.98668192  0.57211307     0.07100
C363        C  0.17151038  0.99484873  0.51511041     0.08900
C364        C  0.17071997  0.50160011  0.46646059    -0.17800
C365        C  0.14463025  0.99538912  0.11508563    -0.17000
C366        C  0.14099286  0.98733436  0.06800278     0.07100
C367        C  0.13775098  0.97890382  0.01243880     0.08900
C368        C  0.13493612  0.97128516  0.96524374    -0.17800
C369        C  0.30410068  0.81191392  0.92187128    -0.17000
C370        C  0.30298609  0.80396238  0.97042542     0.07100
C371        C  0.30688342  0.80006232  0.02837502     0.08900
C372        C  0.31483429  0.80117572  0.07693298    -0.17800
C373        C  0.35213390  0.83990282  0.42341409    -0.17000
C374        C  0.35009386  0.84406852  0.47115271     0.07100
C375        C  0.34700274  0.84714833  0.52768336     0.08900
C376        C  0.34282634  0.84918314  0.57541944    -0.17800
C377        C  0.28179232  0.72536397  0.31177244    -0.17000
C378        C  0.26072334  0.69862167  0.32394226     0.07100
C379        C  0.23674806  0.66634862  0.33390450     0.08900
C380        C  0.21733825  0.63806434  0.33461732    -0.17800
C381        C  0.47218418  0.88234093  0.29233555    -0.17000
C382        C  0.49956642  0.90220653  0.30376384     0.07100
C383        C  0.03180906  0.92635278  0.31295036     0.08900
C384        C  0.05947850  0.94735447  0.31678071    -0.17800
C385        C  0.48209794  0.65654924  0.37944230    -0.17000
C386        C  0.48958233  0.66445538  0.42666802     0.07100
C387        C  0.49773197  0.66857294  0.48368274     0.08900
C388        C  0.00447461  0.66777210  0.53233670    -0.17800
C389        C  0.47418265  0.63197745  0.03352382    -0.17000
C390        C  0.48180246  0.63479026  0.98633324     0.07100
C391        C  0.49023609  0.63803588  0.93077554     0.08900
C392        C  0.49829367  0.64168064  0.88369733    -0.17800
C393        C  0.42570705  0.69271707  0.17246591    -0.17000
C394        C  0.41848340  0.71312172  0.17526689     0.07100
C395        C  0.41044772  0.73674641  0.18446701     0.08900
C396        C  0.40368715  0.75635930  0.19671125    -0.17800
C397        C  0.39648598  0.50356692  0.17814392    -0.17000
C398        C  0.38774189  0.97534978  0.17764480     0.07100
C399        C  0.37942636  0.94274264  0.18406884     0.08900
C400        C  0.37357445  0.91542799  0.19284418    -0.17800
C401        C  0.25537533  0.54534632  0.26965136    -0.17000
C402        C  0.28276616  0.55107481  0.27470752     0.07100
C403        C  0.31498982  0.55820805  0.27860776     0.08900
C404        C  0.34270188  0.56582983  0.27461975    -0.17800
C405        C  0.03204408  0.60097826  0.23538151    -0.17000
C406        C  0.05340406  0.59520784  0.23153412     0.07100
C407        C  0.07793818  0.58759188  0.22831105     0.08900
C408        C  0.09782919  0.57935991  0.23190010    -0.17800
O409        O  0.88289771  0.09736999  0.21552084    -0.83800
O410        O  0.92146955  0.14515988  0.14436700    -0.80900
C411        C  0.93493373  0.16863139  0.17606823     0.99600
O412        O  0.95657880  0.17131602  0.21106588    -0.80900
O413        O  0.99076668  0.15374224  0.28665069    -0.83500
C414        C  0.97226128  0.14204918  0.32672545     1.04200
O415        O  0.94606305  0.11630508  0.32237984    -0.76300
O416        O  0.89186474  0.06631640  0.27587746    -0.76500
C417        C  0.87428017  0.07744157  0.25571117     1.04100
O418        O  0.89555088  0.05198463  0.16851144    -0.83800
O419        O  0.93943708  0.10159045  0.10286980    -0.80900
C420        C  0.96344512  0.12768735  0.08869262     0.99700
O421        O  0.97716944  0.15046864  0.12161393    -0.80900
O422        O  0.50479623  0.12649118  0.19840105    -0.83500
C423        C  0.50649896  0.10804478  0.23602546     1.04100
O424        O  0.98635941  0.09606646  0.27403416    -0.76300
O425        O  0.93279471  0.04961706  0.22250123    -0.76500
C426        C  0.90915059  0.03677217  0.18906330     1.04100
Cr427      Cr  0.91229612  0.09979988  0.16140984     1.93700
Cr428      Cr  0.97968705  0.14780715  0.20500875     1.93200
Cr429      Cr  0.93961998  0.08416074  0.26960482     1.39100
O430        O  0.94381042  0.11045175  0.21208065    -1.21600
O431        O  0.83370370  0.26820871  0.32512389    -0.83800
O432        O  0.87753612  0.27041632  0.25620469    -0.80900
C433        C  0.89552717  0.27869589  0.21597731     0.99600
O434        O  0.90741892  0.30667478  0.19399937    -0.80900
O435        O  0.85598835  0.30745109  0.13950802    -0.83500
C436        C  0.83019243  0.30787630  0.13127688     1.04200
O437        O  0.81953767  0.31700494  0.16821071    -0.76300
O438        O  0.80375634  0.27254450  0.25634426    -0.76500
C439        C  0.80760747  0.25670028  0.29669357     1.04100
O440        O  0.87965729  0.33189440  0.35736010    -0.83800
O441        O  0.92558899  0.33198114  0.29672778    -0.80900
C442        C  0.93982602  0.36000590  0.27481349     0.99700
O443        O  0.92639827  0.36843144  0.23637340    -0.80900
O444        O  0.87854438  0.37147032  0.17339590    -0.83500
C445        C  0.86774651  0.38336638  0.20480866     1.04100
O446        O  0.85164460  0.36739925  0.24584887    -0.76300
O447        O  0.83114742  0.32301512  0.33393577    -0.76500
C448        C  0.85468105  0.33198378  0.36862694     1.04100
Cr449      Cr  0.87818374  0.30201784  0.30436574     1.93700
Cr450      Cr  0.89018737  0.33710126  0.19043053     1.93200
Cr451      Cr  0.82930925  0.31995730  0.25085748     1.39100
O452        O  0.86583528  0.31967577  0.24854613    -1.21600
O453        O  0.70663319  0.09389190  0.28730104    -0.83800
O454        O  0.71247538  0.05096102  0.23017643    -0.80900
C455        C  0.72252612  0.03774810  0.26715793     0.99600
O456        O  0.70400555  0.01748513  0.30197286    -0.80900
O457        O  0.65509837  0.48880346  0.37393814    -0.83500
C458        C  0.66489130  0.00956425  0.41044520     1.04200
O459        O  0.66684320  0.03629024  0.39939999    -0.76300
O460        O  0.66911528  0.08851820  0.34031200    -0.76500
C461        C  0.69694764  0.10504317  0.32159504     1.04100
O462        O  0.64646452  0.07896735  0.23048970    -0.83800
O463        O  0.64974209  0.03213420  0.17736145    -0.80900
C464        C  0.65093399  0.00731698  0.16973039     0.99700
O465        O  0.65945579  0.49405064  0.20875545    -0.80900
O466        O  0.61014065  0.47183835  0.28073220    -0.83500
C467        C  0.59244837  0.47235920  0.31594060     1.04100
O468        O  0.60346849  0.49433741  0.35064201    -0.76300
O469        O  0.60911961  0.04513786  0.28645157    -0.76500
C470        C  0.61862180  0.06687682  0.24911089     1.04100
Cr471      Cr  0.67723401  0.06170591  0.23511480     1.93700
Cr472      Cr  0.65717708  0.49573118  0.29106164     1.93200
Cr473      Cr  0.63871762  0.04050089  0.34057286     1.39100
O474        O  0.65767973  0.03275141  0.28876858    -1.21600
O475        O  0.77112365  0.33076706  0.67366383    -0.83800
O476        O  0.77333929  0.37460765  0.74258528    -0.80900
C477        C  0.78162215  0.39260131  0.78281898     0.99600
O478        O  0.80960117  0.40449001  0.80481241    -0.80900
O479        O  0.81038080  0.35306656  0.85930526    -0.83500
C480        C  0.81080009  0.32726867  0.86753197     1.04200
O481        O  0.81992009  0.31660581  0.83059699    -0.76300
O482        O  0.77545179  0.30082552  0.74245138    -0.76500
C483        C  0.75960822  0.30467626  0.70209560     1.04100
O484        O  0.83481335  0.37671057  0.64146409    -0.83800
O485        O  0.83490385  0.42264998  0.70209137    -0.80900
C486        C  0.86293062  0.43688625  0.72401102     0.99700
O487        O  0.87135646  0.42346145  0.76245612    -0.80900
O488        O  0.87439619  0.37561258  0.82542549    -0.83500
C489        C  0.88628586  0.36480786  0.79401339     1.04100
O490        O  0.87030882  0.34869584  0.75297541    -0.76300
O491        O  0.82592008  0.32819790  0.66487689    -0.76500
C492        C  0.83489890  0.35173146  0.63019470     1.04100
Cr493      Cr  0.80493765  0.37524593  0.69443993     1.93700
Cr494      Cr  0.84002729  0.38725724  0.80838838     1.93200
Cr495      Cr  0.82286668  0.32636889  0.74795317     1.39100
O496        O  0.82259398  0.36289917  0.75026703    -1.21600
O497        O  0.60029772  0.37998440  0.78322089    -0.83800
O498        O  0.64810188  0.41856878  0.85437275    -0.80900
C499        C  0.67156891  0.43203225  0.82267273     0.99600
O500        O  0.67424738  0.45367440  0.78768394    -0.80900
O501        O  0.65665702  0.48785460  0.71211762    -0.83500
C502        C  0.64496379  0.46934642  0.67203738     1.04200
O503        O  0.61922356  0.44314528  0.67637254    -0.76300
O504        O  0.56923725  0.38894458  0.72286162    -0.76500
C505        C  0.58035807  0.37135884  0.74303504     1.04100
O506        O  0.55492172  0.39264487  0.83023644    -0.83800
O507        O  0.60453763  0.43653779  0.89588341    -0.80900
C508        C  0.63063809  0.46054611  0.91006784     0.99700
O509        O  0.65341310  0.47426745  0.87714935    -0.80900
O510        O  0.62941445  0.00188242  0.80037523    -0.83500
C511        C  0.61096332  0.00358147  0.76274952     1.04100
O512        O  0.59898331  0.48343970  0.72473166    -0.76300
O513        O  0.55254074  0.42987604  0.77624327    -0.76500
C514        C  0.53970347  0.40623939  0.80968256     1.04100
Cr515      Cr  0.60273802  0.40939122  0.83733580     1.93700
Cr516      Cr  0.65073540  0.47677863  0.79375464     1.93200
Cr517      Cr  0.58708173  0.43670147  0.72914467     1.39100
O518        O  0.61338057  0.44089919  0.78667191    -1.21600
O519        O  0.59678482  0.20371074  0.71151025    -0.83800
O520        O  0.55384929  0.20954156  0.76863436    -0.80900
C521        C  0.54062579  0.21958325  0.73165641     0.99600
O522        O  0.52036058  0.20105650  0.69683653    -0.80900
O523        O  0.99168401  0.15214425  0.62485179    -0.83500
C524        C  0.51244208  0.16194093  0.58835026     1.04200
O525        O  0.53917200  0.16389886  0.59939630    -0.76300
O526        O  0.59141455  0.16619450  0.65848478    -0.76500
C527        C  0.60793510  0.19402818  0.67720769     1.04100
O528        O  0.58188323  0.14355026  0.76830523    -0.83800
O529        O  0.53504563  0.14681466  0.82142994    -0.80900
C530        C  0.51022180  0.14799417  0.82905840     0.99700
O531        O  0.99694770  0.15651038  0.79003783    -0.80900
O532        O  0.97474211  0.10719442  0.71804788    -0.83500
C533        C  0.97526609  0.08950138  0.68283920     1.04100
O534        O  0.99723895  0.10052428  0.64813825    -0.76300
O535        O  0.54805454  0.10619791  0.71232969    -0.76500
C536        C  0.56979680  0.11570644  0.74967591     1.04100
Cr537      Cr  0.56460772  0.17430891  0.76368658     1.93700
Cr538      Cr  0.99862108  0.15422930  0.70773111     1.93200
Cr539      Cr  0.54339964  0.13578467  0.65821639     1.39100
O540        O  0.53564863  0.15474514  0.71002539    -1.21600
C541        C  0.54821763  0.25243186  0.72916679    -0.17000
C542        C  0.55394749  0.27982185  0.72410390     0.07100
C543        C  0.56109164  0.31205041  0.72018360     0.08900
C544        C  0.56872760  0.33976784  0.72414840    -0.17800
C545        C  0.58228586  0.09491846  0.76688745    -0.17000
C546        C  0.59051549  0.07502616  0.77047559     0.07100
C547        C  0.59812694  0.05048744  0.76725112     0.08900
C548        C  0.60389501  0.02912599  0.76340001    -0.17800
C549        C  0.88526848  0.46923805  0.70648853    -0.17000
C550        C  0.90513397  0.49661724  0.69504834     0.07100
C551        C  0.92927550  0.02885696  0.68584426     0.08900
C552        C  0.95027097  0.05652718  0.68200173    -0.17800
C553        C  0.72826487  0.27886861  0.68701235    -0.17000
C554        C  0.70151505  0.25780544  0.67484308     0.07100
C555        C  0.66923734  0.23383595  0.66488764     0.08900
C556        C  0.64095218  0.21442598  0.66418244    -0.17800
C557        C  0.75928887  0.40076860  0.80207134    -0.17000
C558        C  0.73967928  0.40753633  0.81429902     0.07100
C559        C  0.71605817  0.41557978  0.82348004     0.08900
C560        C  0.69565591  0.42280718  0.82627169    -0.17800
C561        C  0.91835154  0.37064219  0.80596748    -0.17000
C562        C  0.94567122  0.37650217  0.81472416     0.07100
C563        C  0.97828279  0.38482675  0.82112310     0.08900
C564        C  0.50650097  0.39357524  0.82060844    -0.17800
C565        C  0.65946166  0.47918554  0.61932635    -0.17000
C566        C  0.66737665  0.48668192  0.57211309     0.07100
C567        C  0.67151043  0.49484875  0.51511041     0.08900
C568        C  0.67071988  0.00160008  0.46646041    -0.17800
C569        C  0.64463031  0.49538922  0.11508586    -0.17000
C570        C  0.64099285  0.48733428  0.06800259     0.07100
C571        C  0.63775099  0.47890378  0.01243896     0.08900
C572        C  0.63493615  0.47128512  0.96524377    -0.17800
C573        C  0.80410070  0.31191394  0.92187143    -0.17000
C574        C  0.80298605  0.30396246  0.97042525     0.07100
C575        C  0.80688349  0.30006234  0.02837534     0.08900
C576        C  0.81483416  0.30117569  0.07693266    -0.17800
C577        C  0.85213391  0.33990286  0.42341411    -0.17000
C578        C  0.85009386  0.34406846  0.47115262     0.07100
C579        C  0.84700277  0.34714838  0.52768345     0.08900
C580        C  0.84282633  0.34918309  0.57541936    -0.17800
C581        C  0.78179258  0.22536422  0.31177243    -0.17000
C582        C  0.76072308  0.19862128  0.32394242     0.07100
C583        C  0.73674838  0.16634907  0.33390446     0.08900
C584        C  0.71733793  0.13806389  0.33461731    -0.17800
C585        C  0.97218380  0.38234057  0.29233540    -0.17000
C586        C  0.99956694  0.40220690  0.30376397     0.07100
C587        C  0.53180910  0.42635290  0.31295034     0.08900
C588        C  0.55947834  0.44735445  0.31678076    -0.17800
C589        C  0.98209784  0.15654913  0.37944213    -0.17000
C590        C  0.98958232  0.16445530  0.42666809     0.07100
C591        C  0.99773197  0.16857287  0.48368282     0.08900
C592        C  0.50447453  0.16777201  0.53233650    -0.17800
C593        C  0.97418259  0.13197749  0.03352390    -0.17000
C594        C  0.98180241  0.13479013  0.98633312     0.07100
C595        C  0.99023606  0.13803588  0.93077532     0.08900
C596        C  0.99829357  0.14168051  0.88369746    -0.17800
C597        C  0.92570703  0.19271726  0.17246590    -0.17000
C598        C  0.91848345  0.21312153  0.17526685     0.07100
C599        C  0.91044768  0.23674666  0.18446714     0.08900
C600        C  0.90368714  0.25635905  0.19671114    -0.17800
C601        C  0.89648601  0.00356701  0.17814383    -0.17000
C602        C  0.88774191  0.47534993  0.17764484     0.07100
C603        C  0.87942621  0.44274215  0.18406901     0.08900
C604        C  0.87357454  0.41542843  0.19284411    -0.17800
C605        C  0.75537541  0.04534635  0.26965134    -0.17000
C606        C  0.78276610  0.05107484  0.27470755     0.07100
C607        C  0.81498992  0.05820810  0.27860774     0.08900
C608        C  0.84270179  0.06582978  0.27461977    -0.17800
C609        C  0.53204429  0.10097831  0.23538143    -0.17000
C610        C  0.55340384  0.09520794  0.23153416     0.07100
C611        C  0.57793849  0.08759170  0.22831105     0.08900
C612        C  0.59782887  0.07936008  0.23190003    -0.17800
O613        O  0.88289762  0.59737012  0.21552068    -0.83800
O614        O  0.92146943  0.64515982  0.14436700    -0.80900
C615        C  0.93493356  0.66863162  0.17606821     0.99600
O616        O  0.95657883  0.67131597  0.21106587    -0.80900
O617        O  0.99076685  0.65374233  0.28665050    -0.83500
C618        C  0.97226063  0.64204862  0.32672572     1.04200
O619        O  0.94606322  0.61630533  0.32237973    -0.76300
O620        O  0.89186452  0.56631655  0.27587734    -0.76500
C621        C  0.87428082  0.57744121  0.25571175     1.04100
O622        O  0.89555078  0.55198476  0.16851136    -0.83800
O623        O  0.93943694  0.60159043  0.10286969    -0.80900
C624        C  0.96344524  0.62768763  0.08869273     0.99700
O625        O  0.97716941  0.65046855  0.12161383    -0.80900
O626        O  0.50479624  0.62649112  0.19840100    -0.83500
C627        C  0.50649853  0.60804484  0.23602546     1.04100
O628        O  0.98635935  0.59606657  0.27403423    -0.76300
O629        O  0.93279458  0.54961709  0.22250110    -0.76500
C630        C  0.90915101  0.53677206  0.18906386     1.04100
Cr631      Cr  0.91229609  0.59979991  0.16140983     1.93700
Cr632      Cr  0.97968703  0.64780715  0.20500877     1.93200
Cr633      Cr  0.93961999  0.58416080  0.26960481     1.39100
O634        O  0.94381039  0.61045180  0.21208056    -1.21600
O635        O  0.83370372  0.76820871  0.32512388    -0.83800
O636        O  0.87753609  0.77041629  0.25620458    -0.80900
C637        C  0.89552716  0.77869607  0.21597724     0.99600
O638        O  0.90741895  0.80667475  0.19399949    -0.80900
O639        O  0.85598837  0.80745109  0.13950811    -0.83500
C640        C  0.83019248  0.80787618  0.13127665     1.04200
O641        O  0.81953777  0.81700508  0.16821074    -0.76300
O642        O  0.80375640  0.77254457  0.25634429    -0.76500
C643        C  0.80760766  0.75670048  0.29669349     1.04100
O644        O  0.87965738  0.83189433  0.35736016    -0.83800
O645        O  0.92558906  0.83198126  0.29672773    -0.80900
C646        C  0.93982583  0.86000548  0.27481374     0.99700
O647        O  0.92639825  0.86843145  0.23637333    -0.80900
O648        O  0.87854445  0.87147026  0.17339587    -0.83500
C649        C  0.86774661  0.88336687  0.20480854     1.04100
O650        O  0.85164464  0.86739917  0.24584893    -0.76300
O651        O  0.83114755  0.82301523  0.33393579    -0.76500
C652        C  0.85468067  0.83198372  0.36862700     1.04100
Cr653      Cr  0.87818372  0.80201785  0.30436576     1.93700
Cr654      Cr  0.89018737  0.83710126  0.19043062     1.93200
Cr655      Cr  0.82930929  0.81995735  0.25085742     1.39100
O656        O  0.86583527  0.81967575  0.24854617    -1.21600
O657        O  0.70663330  0.59389201  0.28730107    -0.83800
O658        O  0.71247538  0.55096093  0.23017649    -0.80900
C659        C  0.72252606  0.53774837  0.26715735     0.99600
O660        O  0.70400549  0.51748507  0.30197294    -0.80900
O661        O  0.65509842  0.98880347  0.37393828    -0.83500
C662        C  0.66489148  0.50956468  0.41044533     1.04200
O663        O  0.66684325  0.53629021  0.39940000    -0.76300
O664        O  0.66911543  0.58851839  0.34031194    -0.76500
C665        C  0.69694745  0.60504289  0.32159493     1.04100
O666        O  0.64646456  0.57896742  0.23048967    -0.83800
O667        O  0.64974213  0.53213428  0.17736146    -0.80900
C668        C  0.65093392  0.50731683  0.16973027     0.99700
O669        O  0.65945578  0.99405059  0.20875545    -0.80900
O670        O  0.61014055  0.97183824  0.28073215    -0.83500
C671        C  0.59244858  0.97235934  0.31594060     1.04100
O672        O  0.60346839  0.99433727  0.35064195    -0.76300
O673        O  0.60911967  0.54513794  0.28645172    -0.76500
C674        C  0.61862178  0.56687690  0.24911087     1.04100
Cr675      Cr  0.67723402  0.56170598  0.23511475     1.93700
Cr676      Cr  0.65717705  0.99573109  0.29106167     1.93200
Cr677      Cr  0.63871766  0.54050098  0.34057288     1.39100
O678        O  0.65767977  0.53275151  0.28876857    -1.21600
O679        O  0.77112369  0.83076722  0.67366373    -0.83800
O680        O  0.77333918  0.87460762  0.74258532    -0.80900
C681        C  0.78162217  0.89260139  0.78281902     0.99600
O682        O  0.80960109  0.90449002  0.80481234    -0.80900
O683        O  0.81038066  0.85306654  0.85930508    -0.83500
C684        C  0.81080010  0.82726845  0.86753177     1.04200
O685        O  0.81992006  0.81660584  0.83059712    -0.76300
O686        O  0.77545181  0.80082555  0.74245128    -0.76500
C687        C  0.75960775  0.80467559  0.70209586     1.04100
O688        O  0.83481321  0.87671053  0.64146409    -0.83800
O689        O  0.83490368  0.92264994  0.70209127    -0.80900
C690        C  0.86293081  0.93688594  0.72401173     0.99700
O691        O  0.87135631  0.92346153  0.76245594    -0.80900
O692        O  0.87439609  0.87561251  0.82542549    -0.83500
C693        C  0.88628576  0.86480784  0.79401335     1.04100
O694        O  0.87030883  0.84869583  0.75297546    -0.76300
O695        O  0.82592010  0.82819790  0.66487689    -0.76500
C696        C  0.83489889  0.85173143  0.63019461     1.04100
Cr697      Cr  0.80493755  0.87524586  0.69443998     1.93700
Cr698      Cr  0.84002717  0.88725711  0.80838834     1.93200
Cr699      Cr  0.82286665  0.82636882  0.74795316     1.39100
O700        O  0.82259386  0.86289907  0.75026700    -1.21600
O701        O  0.60029779  0.87998443  0.78322109    -0.83800
O702        O  0.64810181  0.91856869  0.85437283    -0.80900
C703        C  0.67156925  0.93203232  0.82267247     0.99600
O704        O  0.67424737  0.95367434  0.78768396    -0.80900
O705        O  0.65665701  0.98785454  0.71211756    -0.83500
C706        C  0.64496406  0.96934671  0.67203752     1.04200
O707        O  0.61922351  0.94314518  0.67637256    -0.76300
O708        O  0.56923725  0.88894448  0.72286165    -0.76500
C709        C  0.58035773  0.87135875  0.74303450     1.04100
O710        O  0.55492168  0.89264494  0.83023648    -0.83800
O711        O  0.60453768  0.93653774  0.89588350    -0.80900
C712        C  0.63063818  0.96054620  0.91006782     0.99700
O713        O  0.65341312  0.97426744  0.87714941    -0.80900
O714        O  0.62941447  0.50188240  0.80037526    -0.83500
C715        C  0.61096326  0.50358202  0.76274967     1.04100
O716        O  0.59898332  0.98343980  0.72473181    -0.76300
O717        O  0.55254080  0.92987612  0.77624312    -0.76500
C718        C  0.53970338  0.90623892  0.80968304     1.04100
Cr719      Cr  0.60273807  0.90939116  0.83733590     1.93700
Cr720      Cr  0.65073543  0.97677857  0.79375464     1.93200
Cr721      Cr  0.58708173  0.93670141  0.72914470     1.39100
O722        O  0.61338062  0.94089907  0.78667187    -1.21600
O723        O  0.59678494  0.70371074  0.71150999    -0.83800
O724        O  0.55384926  0.70954144  0.76863443    -0.80900
C725        C  0.54062557  0.71958350  0.73165602     0.99600
O726        O  0.52036050  0.70105644  0.69683658    -0.80900
O727        O  0.99168389  0.65214419  0.62485181    -0.83500
C728        C  0.51244217  0.66194106  0.58835016     1.04200
O729        O  0.53917193  0.66389881  0.59939635    -0.76300
O730        O  0.59141455  0.66619442  0.65848472    -0.76500
C731        C  0.60793491  0.69402851  0.67720830     1.04100
O732        O  0.58188316  0.64355035  0.76830512    -0.83800
O733        O  0.53504566  0.64681464  0.82142987    -0.80900
C734        C  0.51022149  0.64799407  0.82905849     0.99700
O735        O  0.99694764  0.65651040  0.79003774    -0.80900
O736        O  0.97474208  0.60719440  0.71804794    -0.83500
C737        C  0.97526595  0.58950128  0.68283924     1.04100
O738        O  0.99723888  0.60052430  0.64813817    -0.76300
O739        O  0.54805439  0.60619791  0.71232943    -0.76500
C740        C  0.56979731  0.61570621  0.74967657     1.04100
Cr741      Cr  0.56460767  0.67430893  0.76368660     1.93700
Cr742      Cr  0.99862102  0.65422928  0.70773112     1.93200
Cr743      Cr  0.54339962  0.63578465  0.65821648     1.39100
O744        O  0.53564857  0.65474511  0.71002539    -1.21600
C745        C  0.54821758  0.75243143  0.72916689    -0.17000
C746        C  0.55394753  0.77982227  0.72410385     0.07100
C747        C  0.56109146  0.81205003  0.72018358     0.08900
C748        C  0.56872773  0.83976807  0.72414846    -0.17800
C749        C  0.58228554  0.59491910  0.76688728    -0.17000
C750        C  0.59051577  0.57502534  0.77047566     0.07100
C751        C  0.59812679  0.55048830  0.76725123     0.08900
C752        C  0.60389519  0.52912532  0.76339988    -0.17800
C753        C  0.88526860  0.96923830  0.70648840    -0.17000
C754        C  0.90513378  0.99661698  0.69504848     0.07100
C755        C  0.92927527  0.52885678  0.68584428     0.08900
C756        C  0.95027109  0.55652729  0.68200171    -0.17800
C757        C  0.72826524  0.77886892  0.68701250    -0.17000
C758        C  0.70151467  0.75780510  0.67484295     0.07100
C759        C  0.66923737  0.73383607  0.66488772     0.08900
C760        C  0.64095225  0.71442605  0.66418247    -0.17800
C761        C  0.75928886  0.90076864  0.80207129    -0.17000
C762        C  0.73967928  0.90753645  0.81429902     0.07100
C763        C  0.71605845  0.91557990  0.82348004     0.08900
C764        C  0.69565573  0.92280717  0.82627175    -0.17800
C765        C  0.91835160  0.87064229  0.80596756    -0.17000
C766        C  0.94567111  0.87650211  0.81472414     0.07100
C767        C  0.97828279  0.88482675  0.82112314     0.08900
C768        C  0.50650108  0.89357532  0.82060842    -0.17800
C769        C  0.65946170  0.97918551  0.61932641    -0.17000
C770        C  0.66737670  0.98668192  0.57211305     0.07100
C771        C  0.67151043  0.99484872  0.51511040     0.08900
C772        C  0.67071992  0.50160013  0.46646042    -0.17800
C773        C  0.64463017  0.99538910  0.11508567    -0.17000
C774        C  0.64099281  0.98733436  0.06800273     0.07100
C775        C  0.63775094  0.97890382  0.01243878     0.08900
C776        C  0.63493608  0.97128518  0.96524375    -0.17800
C777        C  0.80410054  0.81191392  0.92187142    -0.17000
C778        C  0.80298604  0.80396241  0.97042531     0.07100
C779        C  0.80688342  0.80006233  0.02837516     0.08900
C780        C  0.81483424  0.80117572  0.07693288    -0.17800
C781        C  0.85213397  0.83990281  0.42341392    -0.17000
C782        C  0.85009383  0.84406854  0.47115289     0.07100
C783        C  0.84700280  0.84714834  0.52768326     0.08900
C784        C  0.84282640  0.84918318  0.57541958    -0.17800
C785        C  0.78179238  0.72536397  0.31177245    -0.17000
C786        C  0.76072340  0.69862167  0.32394226     0.07100
C787        C  0.73674812  0.66634862  0.33390450     0.08900
C788        C  0.71733831  0.63806434  0.33461730    -0.17800
C789        C  0.97218400  0.88234074  0.29233545    -0.17000
C790        C  0.99956677  0.90220672  0.30376393     0.07100
C791        C  0.53180955  0.92635317  0.31295042     0.08900
C792        C  0.55947798  0.94735416  0.31678066    -0.17800
C793        C  0.98209787  0.65654922  0.37944220    -0.17000
C794        C  0.98958238  0.66445538  0.42666813     0.07100
C795        C  0.99773186  0.66857294  0.48368264     0.08900
C796        C  0.50447461  0.66777211  0.53233657    -0.17800
C797        C  0.97418256  0.63197743  0.03352388    -0.17000
C798        C  0.98180251  0.63479024  0.98633316     0.07100
C799        C  0.99023607  0.63803588  0.93077556     0.08900
C800        C  0.99829365  0.64168065  0.88369735    -0.17800
C801        C  0.92570717  0.69271703  0.17246599    -0.17000
C802        C  0.91848336  0.71312175  0.17526694     0.07100
C803        C  0.91044762  0.73674653  0.18446711     0.08900
C804        C  0.90368723  0.75635907  0.19671108    -0.17800
C805        C  0.89648598  0.50356702  0.17814389    -0.17000
C806        C  0.88774190  0.97534985  0.17764482     0.07100
C807        C  0.87942640  0.94274260  0.18406885     0.08900
C808        C  0.87357451  0.91542804  0.19284416    -0.17800
C809        C  0.75537573  0.54534641  0.26965138    -0.17000
C810        C  0.78276565  0.55107471  0.27470744     0.07100
C811        C  0.81499064  0.55820824  0.27860774     0.08900
C812        C  0.84270114  0.56582962  0.27461999    -0.17800
C813        C  0.53204461  0.60097814  0.23538142    -0.17000
C814        C  0.55340346  0.59520796  0.23153422     0.07100
C815        C  0.57793870  0.58759166  0.22831111     0.08900
C816        C  0.59782881  0.57936005  0.23190004    -0.17800
loop_ 
_geom_bond_atom_site_label_1 
_geom_bond_atom_site_label_2 
_geom_bond_distance 
_geom_bond_site_symmetry_2 
_ccdc_geom_bond_type 
O1          Cr19   1.954       .  S
O1            C9   1.253       .  A
O2          Cr19   2.021       .  S
O2            C3   1.268       .  A
C3            O4   1.258       .  A
C3          C189   1.434       .  S
O4          Cr20   1.967       .  S
O5          Cr20   2.015       .  S
O5            C6   1.264       .  A
C6            O7   1.255       .  A
C6          C181   1.433       .  S
O7          Cr21   1.969       .  S
O8          Cr21   2.028       .  S
O8            C9   1.269       .  A
C9          C200   1.432       .  S
O10         Cr19   2.024       .  S
O10          C18   1.267       .  A
O11         Cr19   1.966       .  S
O11          C12   1.255       .  A
C12          O13   1.265       .  A
C12         C185   1.432       .  S
O13         Cr20   2.015       .  S
O14        Cr428   1.963   1_455  S
O14          C15   1.257       .  A
C15         O424   1.270   1_455  A
C15         C201   1.436       .  S
O16         Cr21   2.025       .  S
O16         C423   1.270       .  A
O17         Cr21   1.963       .  S
O17          C18   1.254       .  A
C18         C193   1.437       .  S
Cr19         O22   1.768       .  S
Cr20        O422   1.963       .  S
Cr20         O22   1.772       .  S
Cr21         O22   1.768       .  S
O23         Cr41   2.010       .  S
O23          C31   1.264       .  A
O24         Cr41   1.971       .  S
O24          C25   1.257       .  A
C25          O26   1.265       .  A
C25         C192   1.435       .  S
O26         Cr42   2.013       .  S
O27         Cr42   1.970       .  S
O27          C28   1.257       .  A
C28          O29   1.268       .  A
C28         C168   1.439       .  S
O29         Cr43   2.023       .  S
O30         Cr43   1.980       .  S
O30          C31   1.260       .  A
C31         C173   1.437       .  S
O32         Cr41   1.969       .  S
O32          C40   1.257       .  A
O33         Cr41   2.014       .  S
O33          C34   1.265       .  A
C34          O35   1.257       .  A
C34         C177   1.435       .  S
O35         Cr42   1.972       .  S
O36         Cr42   2.011       .  S
O36          C37   1.264       .  A
C37          O38   1.259       .  A
C37         C196   1.438       .  S
O38         Cr43   1.979       .  S
O39         Cr43   2.021       .  S
O39          C40   1.267       .  A
C40         C169   1.437       .  S
Cr41         O44   1.774       .  S
Cr42         O44   1.773       .  S
Cr43         O44   1.774       .  S
O45         Cr63   1.958       .  S
O45          C53   1.252       .  A
O46         Cr63   2.025       .  S
O46          C47   1.270       .  A
C47          O48   1.257       .  A
C47         C197   1.434       .  S
O48        Cr268   1.962   1_545  S
O49         Cr64   2.014       .  S
O49         C254   1.265       .  A
C50          O51   1.256       .  A
C50         O253   1.265   1_545  A
C50         C160   1.432       .  S
O51         Cr65   1.970       .  S
O52         Cr65   2.026       .  S
O52          C53   1.267       .  A
C53         C176   1.435       .  S
O54         Cr63   2.029       .  S
O54          C62   1.269       .  A
O55         Cr63   1.968       .  S
O55          C56   1.254       .  A
C56         O261   1.264   1_545  A
C56         C365   1.432   1_545  S
O57         Cr64   2.015       .  S
O57         C260   1.264       .  A
O58         Cr64   1.969       .  S
O58          C59   1.259       .  A
C59          O60   1.269       .  A
C59         C180   1.435       .  S
O60        Cr269   2.023       .  S
O61         Cr65   1.956       .  S
O61          C62   1.254       .  A
C62         C204   1.434       .  S
Cr63         O66   1.768       .  S
Cr64        O252   1.962       .  S
Cr64        O270   1.771       .  S
Cr65        O264   2.023   1_545  S
Cr65         O66   1.768       .  S
O66        Cr268   1.771   1_545  S
O67         Cr85   2.010       .  S
O67          C75   1.264       .  A
O68         Cr85   1.971       .  S
O68          C69   1.257       .  A
C69          O70   1.265       .  A
C69         C149   1.435       .  S
O70         Cr86   2.013       .  S
O71         Cr86   1.970       .  S
O71          C72   1.257       .  A
C72          O73   1.268       .  A
C72         C165   1.439       .  S
O73         Cr87   2.023       .  S
O74         Cr87   1.980       .  S
O74          C75   1.260       .  A
C75         C145   1.437       .  S
O76         Cr85   1.969       .  S
O76          C84   1.257       .  A
O77         Cr85   2.014       .  S
O77          C78   1.265       .  A
C78          O79   1.257       .  A
C78         C141   1.435       .  S
O79         Cr86   1.972       .  S
O80         Cr86   2.011       .  S
O80          C81   1.264       .  A
C81          O82   1.259       .  A
C81         C153   1.438       .  S
O82         Cr87   1.979       .  S
O83         Cr87   2.021       .  S
O83          C84   1.268       .  A
C84         C172   1.437       .  S
Cr85         O88   1.774       .  S
Cr86         O88   1.773       .  S
Cr87         O88   1.774       .  S
O89        Cr107   1.954       .  S
O89          C97   1.253       .  A
O90        Cr107   2.021       .  S
O90          C91   1.268       .  A
C91          O92   1.258       .  A
C91         C152   1.434       .  S
O92        Cr108   1.967       .  S
O93        Cr108   2.014       .  S
O93          C94   1.264       .  A
C94          O95   1.255       .  A
C94         C157   1.433       .  S
O95        Cr109   1.969       .  S
O96        Cr109   2.028       .  S
O96          C97   1.269       .  A
C97         C136   1.432       .  S
O98        Cr107   2.024       .  S
O98         C106   1.267       .  A
O99        Cr107   1.966       .  S
O99         C100   1.255       .  A
C100        O101   1.265       .  A
C100        C164   1.432       .  S
O101       Cr108   2.015       .  S
O102       Cr312   1.963   1_545  S
O102        C103   1.257       .  A
C103        O308   1.270   1_545  A
C103        C140   1.436       .  S
O104       Cr109   2.025       .  S
O104        C307   1.270       .  A
O105       Cr109   1.963       .  S
O105        C106   1.254       .  A
C106        C156   1.437       .  S
Cr107       O110   1.768       .  S
Cr108       O306   1.963       .  S
Cr108       O110   1.772       .  S
Cr109       O110   1.768       .  S
O111       Cr129   1.958       .  S
O111        C119   1.253       .  A
O112       Cr129   2.025       .  S
O112        C113   1.271       .  A
C113        O114   1.257       .  A
C113        C133   1.434       .  S
O114       Cr538   1.962   1_455  S
O115       Cr130   2.014       .  S
O115        C524   1.265       .  A
C116        O117   1.256       .  A
C116        O523   1.265   1_455  A
C116        C184   1.432       .  S
O117       Cr131   1.970       .  S
O118       Cr131   2.026       .  S
O118        C119   1.267       .  A
C119        C148   1.435       .  S
O120       Cr129   2.029       .  S
O120        C128   1.269       .  A
O121       Cr129   1.968       .  S
O121        C122   1.254       .  A
C122        O531   1.264   1_455  A
C122        C596   1.432   1_455  S
O123       Cr130   2.015       .  S
O123        C530   1.264       .  A
O124       Cr130   1.969       .  S
O124        C125   1.259       .  A
C125        O126   1.269       .  A
C125        C144   1.435       .  S
O126       Cr539   2.023       .  S
O127       Cr131   1.956       .  S
O127        C128   1.254       .  A
C128        C137   1.434       .  S
Cr129       O132   1.768       .  S
Cr130       O522   1.962       .  S
Cr130       O540   1.771       .  S
Cr131       O534   2.023   1_455  S
Cr131       O132   1.768       .  S
O132       Cr538   1.771   1_455  S
C133        C134   1.206       .  T
C134        C135   1.411       .  S
C135        C136   1.205       .  T
C137        C138   1.206       .  T
C138        C139   1.413       .  S
C139        C140   1.206       .  T
C141        C142   1.206       .  T
C142        C347   1.412       .  S
C143        C144   1.206       .  T
C143        C346   1.412   1_545  S
C145        C146   1.207       .  T
C146        C147   1.414       .  S
C147        C148   1.206       .  T
C149        C150   1.206       .  T
C150        C151   1.411       .  S
C151        C152   1.206       .  T
C153        C154   1.207       .  T
C154        C155   1.415       .  S
C155        C564   1.207       .  T
C156        C563   1.207   1_455  T
C157        C158   1.204       .  T
C158        C159   1.409       .  S
C159        C364   1.204       .  T
C160        C363   1.204   1_545  T
C161        C260   1.432       .  S
C161        C162   1.204       .  T
C162        C163   1.409       .  S
C163        C164   1.204   1_554  T
C165        C166   1.208       .  T
C166        C167   1.416   1_556  S
C167        C168   1.208       .  T
C169        C170   1.207       .  T
C170        C171   1.414       .  S
C171        C172   1.207       .  T
C173        C174   1.207       .  T
C174        C175   1.414       .  S
C175        C176   1.206       .  T
C177        C178   1.206       .  T
C178        C587   1.412       .  S
C179        C180   1.206       .  T
C179        C586   1.412   1_455  S
C181        C182   1.204       .  T
C182        C183   1.409       .  S
C183        C592   1.204       .  T
C184        C591   1.204   1_455  T
C185        C186   1.204   1_554  T
C186        C187   1.409       .  S
C187        C188   1.204       .  T
C188        C530   1.432       .  S
C189        C190   1.206       .  T
C190        C191   1.411       .  S
C191        C192   1.206       .  T
C193        C398   1.207   1_545  T
C194        C397   1.207       .  T
C194        C195   1.415       .  S
C195        C196   1.207       .  T
C197        C198   1.206       .  T
C198        C199   1.411       .  S
C199        C200   1.205       .  T
C201        C202   1.206       .  T
C202        C203   1.413       .  S
C203        C204   1.205       .  T
O205       Cr223   1.954       .  S
O205        C213   1.253       .  A
O206       Cr223   2.021       .  S
O206        C207   1.268       .  A
C207        O208   1.258       .  A
C207        C393   1.434       .  S
O208       Cr224   1.967       .  S
O209       Cr224   2.015       .  S
O209        C210   1.264       .  A
C210        O211   1.255       .  A
C210        C385   1.433       .  S
O211       Cr225   1.969       .  S
O212       Cr225   2.028       .  S
O212        C213   1.269       .  A
C213        C404   1.432       .  S
O214       Cr223   2.024       .  S
O214        C222   1.267       .  A
O215       Cr223   1.966       .  S
O215        C216   1.255       .  A
C216        O217   1.265       .  A
C216        C389   1.432       .  S
O217       Cr224   2.015       .  S
O218       Cr632   1.963   1_455  S
O218        C219   1.257       .  A
C219        O628   1.270   1_455  A
C219        C405   1.436       .  S
O220       Cr225   2.025       .  S
O220        C627   1.270       .  A
O221       Cr225   1.963       .  S
O221        C222   1.254       .  A
C222        C397   1.437       .  S
Cr223       O226   1.768       .  S
Cr224       O626   1.963       .  S
Cr224       O226   1.772       .  S
Cr225       O226   1.768       .  S
O227       Cr245   2.010       .  S
O227        C235   1.264       .  A
O228       Cr245   1.971       .  S
O228        C229   1.257       .  A
C229        O230   1.265       .  A
C229        C396   1.435       .  S
O230       Cr246   2.013       .  S
O231       Cr246   1.970       .  S
O231        C232   1.257       .  A
C232        O233   1.268       .  A
C232        C372   1.439       .  S
O233       Cr247   2.023       .  S
O234       Cr247   1.980       .  S
O234        C235   1.260       .  A
C235        C377   1.437       .  S
O236       Cr245   1.969       .  S
O236        C244   1.257       .  A
O237       Cr245   2.014       .  S
O237        C238   1.265       .  A
C238        O239   1.257       .  A
C238        C381   1.435       .  S
O239       Cr246   1.972       .  S
O240       Cr246   2.011       .  S
O240        C241   1.264       .  A
C241        O242   1.259       .  A
C241        C400   1.438       .  S
O242       Cr247   1.979       .  S
O243       Cr247   2.021       .  S
O243        C244   1.268       .  A
C244        C373   1.437       .  S
Cr245       O248   1.774       .  S
Cr246       O248   1.773       .  S
Cr247       O248   1.774       .  S
O249       Cr267   1.958       .  S
O249        C257   1.252       .  A
O250       Cr267   2.025       .  S
O250        C251   1.270       .  A
C251        O252   1.257       .  A
C251        C401   1.434       .  S
O253       Cr268   2.014       .  S
C254        O255   1.256       .  A
C254        C364   1.432       .  S
O255       Cr269   1.970       .  S
O256       Cr269   2.026       .  S
O256        C257   1.267       .  A
C257        C380   1.435       .  S
O258       Cr267   2.029       .  S
O258        C266   1.269       .  A
O259       Cr267   1.968       .  S
O259        C260   1.254       .  A
O261       Cr268   2.015       .  S
O262       Cr268   1.969       .  S
O262        C263   1.259       .  A
C263        O264   1.269       .  A
C263        C384   1.435       .  S
O265       Cr269   1.956       .  S
O265        C266   1.254       .  A
C266        C408   1.434       .  S
Cr267       O270   1.768       .  S
Cr269       O270   1.768       .  S
O271       Cr289   2.010       .  S
O271        C279   1.264       .  A
O272       Cr289   1.971       .  S
O272        C273   1.257       .  A
C273        O274   1.265       .  A
C273        C353   1.435       .  S
O274       Cr290   2.013       .  S
O275       Cr290   1.970       .  S
O275        C276   1.257       .  A
C276        O277   1.268       .  A
C276        C369   1.439       .  S
O277       Cr291   2.023       .  S
O278       Cr291   1.980       .  S
O278        C279   1.260       .  A
C279        C349   1.437       .  S
O280       Cr289   1.969       .  S
O280        C288   1.257       .  A
O281       Cr289   2.014       .  S
O281        C282   1.265       .  A
C282        O283   1.257       .  A
C282        C345   1.435       .  S
O283       Cr290   1.972       .  S
O284       Cr290   2.011       .  S
O284        C285   1.264       .  A
C285        O286   1.259       .  A
C285        C357   1.438       .  S
O286       Cr291   1.979       .  S
O287       Cr291   2.021       .  S
O287        C288   1.268       .  A
C288        C376   1.437       .  S
Cr289       O292   1.774       .  S
Cr290       O292   1.773       .  S
Cr291       O292   1.774       .  S
O293       Cr311   1.954       .  S
O293        C301   1.253       .  A
O294       Cr311   2.021       .  S
O294        C295   1.268       .  A
C295        O296   1.258       .  A
C295        C356   1.434       .  S
O296       Cr312   1.967       .  S
O297       Cr312   2.014       .  S
O297        C298   1.264       .  A
C298        O299   1.255       .  A
C298        C361   1.433       .  S
O299       Cr313   1.969       .  S
O300       Cr313   2.028       .  S
O300        C301   1.269       .  A
C301        C340   1.432       .  S
O302       Cr311   2.024       .  S
O302        C310   1.267       .  A
O303       Cr311   1.966       .  S
O303        C304   1.255       .  A
C304        O305   1.265       .  A
C304        C368   1.432       .  S
O305       Cr312   2.015       .  S
O306        C307   1.257       .  A
C307        C344   1.436       .  S
O308       Cr313   2.025       .  S
O309       Cr313   1.963       .  S
O309        C310   1.254       .  A
C310        C360   1.437       .  S
Cr311       O314   1.768       .  S
Cr312       O314   1.772       .  S
Cr313       O314   1.768       .  S
O315       Cr333   1.958       .  S
O315        C323   1.253       .  A
O316       Cr333   2.025       .  S
O316        C317   1.271       .  A
C317        O318   1.257       .  A
C317        C337   1.434       .  S
O318       Cr742   1.962   1_455  S
O319       Cr334   2.014       .  S
O319        C728   1.265       .  A
C320        O727   1.265   1_455  A
C320        O321   1.256       .  A
C320        C388   1.432       .  S
O321       Cr335   1.970       .  S
O322       Cr335   2.026       .  S
O322        C323   1.267       .  A
C323        C352   1.435       .  S
O324       Cr333   2.029       .  S
O324        C332   1.269       .  A
O325       Cr333   1.968       .  S
O325        C326   1.254       .  A
C326        O735   1.264   1_455  A
C326        C800   1.432   1_455  S
O327       Cr334   2.015       .  S
O327        C734   1.264       .  A
O328       Cr334   1.969       .  S
O328        C329   1.259       .  A
C329        O330   1.269       .  A
C329        C348   1.435       .  S
O330       Cr743   2.023       .  S
O331       Cr335   1.956       .  S
O331        C332   1.254       .  A
C332        C341   1.434       .  S
Cr333       O336   1.768       .  S
Cr334       O726   1.962       .  S
Cr334       O744   1.771       .  S
Cr335       O738   2.023   1_455  S
Cr335       O336   1.768       .  S
O336       Cr742   1.771   1_455  S
C337        C338   1.206       .  T
C338        C339   1.411       .  S
C339        C340   1.205       .  T
C341        C342   1.206       .  T
C342        C343   1.413       .  S
C343        C344   1.206       .  T
C345        C346   1.206       .  T
C347        C348   1.206       .  T
C349        C350   1.207       .  T
C350        C351   1.414       .  S
C351        C352   1.206       .  T
C353        C354   1.206       .  T
C354        C355   1.411       .  S
C355        C356   1.206       .  T
C357        C358   1.207       .  T
C358        C359   1.415       .  S
C359        C768   1.207       .  T
C360        C767   1.207   1_455  T
C361        C362   1.204       .  T
C362        C363   1.409       .  S
C365        C366   1.204       .  T
C366        C367   1.409       .  S
C367        C368   1.204   1_554  T
C369        C370   1.208       .  T
C370        C371   1.416   1_556  S
C371        C372   1.208       .  T
C373        C374   1.207       .  T
C374        C375   1.414       .  S
C375        C376   1.207       .  T
C377        C378   1.207       .  T
C378        C379   1.414       .  S
C379        C380   1.206       .  T
C381        C382   1.206       .  T
C382        C791   1.412       .  S
C383        C384   1.206       .  T
C383        C790   1.412   1_455  S
C385        C386   1.204       .  T
C386        C387   1.409       .  S
C387        C796   1.204       .  T
C388        C795   1.204   1_455  T
C389        C390   1.204   1_554  T
C390        C391   1.409       .  S
C391        C392   1.204       .  T
C392        C734   1.432       .  S
C393        C394   1.206       .  T
C394        C395   1.411       .  S
C395        C396   1.206       .  T
C398        C399   1.415       .  S
C399        C400   1.207       .  T
C401        C402   1.206       .  T
C402        C403   1.411       .  S
C403        C404   1.205       .  T
C405        C406   1.206       .  T
C406        C407   1.413       .  S
C407        C408   1.206       .  T
O409       Cr427   1.954       .  S
O409        C417   1.253       .  A
O410       Cr427   2.021       .  S
O410        C411   1.268       .  A
C411        O412   1.258       .  A
C411        C597   1.434       .  S
O412       Cr428   1.967       .  S
O413       Cr428   2.015       .  S
O413        C414   1.264       .  A
C414        O415   1.255       .  A
C414        C589   1.433       .  S
O415       Cr429   1.969       .  S
O416       Cr429   2.028       .  S
O416        C417   1.269       .  A
C417        C608   1.432       .  S
O418       Cr427   2.024       .  S
O418        C426   1.267       .  A
O419       Cr427   1.966       .  S
O419        C420   1.255       .  A
C420        O421   1.265       .  A
C420        C593   1.432       .  S
O421       Cr428   2.015       .  S
O422        C423   1.257       .  A
C423        C609   1.436       .  S
O424       Cr429   2.025       .  S
O425       Cr429   1.963       .  S
O425        C426   1.254       .  A
C426        C601   1.437       .  S
Cr427       O430   1.768       .  S
Cr428       O430   1.772       .  S
Cr429       O430   1.768       .  S
O431       Cr449   2.010       .  S
O431        C439   1.264       .  A
O432       Cr449   1.971       .  S
O432        C433   1.257       .  A
C433        O434   1.265       .  A
C433        C600   1.435       .  S
O434       Cr450   2.013       .  S
O435       Cr450   1.970       .  S
O435        C436   1.257       .  A
C436        O437   1.268       .  A
C436        C576   1.439       .  S
O437       Cr451   2.023       .  S
O438       Cr451   1.980       .  S
O438        C439   1.260       .  A
C439        C581   1.437       .  S
O440       Cr449   1.969       .  S
O440        C448   1.257       .  A
O441       Cr449   2.014       .  S
O441        C442   1.265       .  A
C442        O443   1.257       .  A
C442        C585   1.435       .  S
O443       Cr450   1.972       .  S
O444       Cr450   2.011       .  S
O444        C445   1.264       .  A
C445        O446   1.259       .  A
C445        C604   1.438       .  S
O446       Cr451   1.979       .  S
O447       Cr451   2.021       .  S
O447        C448   1.268       .  A
C448        C577   1.437       .  S
Cr449       O452   1.774       .  S
Cr450       O452   1.773       .  S
Cr451       O452   1.774       .  S
O453       Cr471   1.958       .  S
O453        C461   1.253       .  A
O454       Cr471   2.025       .  S
O454        C455   1.270       .  A
C455        O456   1.257       .  A
C455        C605   1.434       .  S
O456       Cr676   1.962   1_545  S
O457       Cr472   2.014       .  S
O457        C662   1.265       .  A
C458        O661   1.265   1_545  A
C458        O459   1.256       .  A
C458        C568   1.432       .  S
O459       Cr473   1.970       .  S
O460       Cr473   2.026       .  S
O460        C461   1.267       .  A
C461        C584   1.435       .  S
O462       Cr471   2.029       .  S
O462        C470   1.269       .  A
O463       Cr471   1.968       .  S
O463        C464   1.254       .  A
C464        O669   1.264   1_545  A
C464        C773   1.432   1_545  S
O465       Cr472   2.015       .  S
O465        C668   1.264       .  A
O466       Cr472   1.969       .  S
O466        C467   1.259       .  A
C467        O468   1.269       .  A
C467        C588   1.435       .  S
O468       Cr677   2.023       .  S
O469       Cr473   1.956       .  S
O469        C470   1.254       .  A
C470        C612   1.434       .  S
Cr471       O474   1.768       .  S
Cr472       O660   1.962       .  S
Cr472       O678   1.771       .  S
Cr473       O672   2.023   1_545  S
Cr473       O474   1.768       .  S
O474       Cr676   1.771   1_545  S
O475       Cr493   2.010       .  S
O475        C483   1.264       .  A
O476       Cr493   1.971       .  S
O476        C477   1.257       .  A
C477        O478   1.265       .  A
C477        C557   1.435       .  S
O478       Cr494   2.013       .  S
O479       Cr494   1.970       .  S
O479        C480   1.257       .  A
C480        O481   1.268       .  A
C480        C573   1.439       .  S
O481       Cr495   2.023       .  S
O482       Cr495   1.980       .  S
O482        C483   1.260       .  A
C483        C553   1.437       .  S
O484       Cr493   1.969       .  S
O484        C492   1.257       .  A
O485       Cr493   2.014       .  S
O485        C486   1.265       .  A
C486        O487   1.257       .  A
C486        C549   1.435       .  S
O487       Cr494   1.972       .  S
O488       Cr494   2.011       .  S
O488        C489   1.264       .  A
C489        O490   1.259       .  A
C489        C561   1.438       .  S
O490       Cr495   1.979       .  S
O491       Cr495   2.021       .  S
O491        C492   1.268       .  A
C492        C580   1.437       .  S
Cr493       O496   1.774       .  S
Cr494       O496   1.773       .  S
Cr495       O496   1.774       .  S
O497       Cr515   1.954       .  S
O497        C505   1.253       .  A
O498       Cr515   2.021       .  S
O498        C499   1.268       .  A
C499        O500   1.258       .  A
C499        C560   1.434       .  S
O500       Cr516   1.967       .  S
O501       Cr516   2.014       .  S
O501        C502   1.264       .  A
C502        O503   1.255       .  A
C502        C565   1.433       .  S
O503       Cr517   1.969       .  S
O504       Cr517   2.028       .  S
O504        C505   1.269       .  A
C505        C544   1.432       .  S
O506       Cr515   2.024       .  S
O506        C514   1.267       .  A
O507       Cr515   1.966       .  S
O507        C508   1.255       .  A
C508        O509   1.265       .  A
C508        C572   1.432       .  S
O509       Cr516   2.015       .  S
O510       Cr720   1.963   1_545  S
O510        C511   1.257       .  A
C511        O716   1.270   1_545  A
C511        C548   1.436       .  S
O512       Cr517   2.025       .  S
O512        C715   1.270       .  A
O513       Cr517   1.963       .  S
O513        C514   1.254       .  A
C514        C564   1.437       .  S
Cr515       O518   1.768       .  S
Cr516       O714   1.963       .  S
Cr516       O518   1.772       .  S
Cr517       O518   1.768       .  S
O519       Cr537   1.958       .  S
O519        C527   1.253       .  A
O520       Cr537   2.025       .  S
O520        C521   1.270       .  A
C521        O522   1.257       .  A
C521        C541   1.434       .  S
O523       Cr538   2.014       .  S
C524        O525   1.256       .  A
C524        C592   1.432       .  S
O525       Cr539   1.970       .  S
O526       Cr539   2.026       .  S
O526        C527   1.267       .  A
C527        C556   1.435       .  S
O528       Cr537   2.029       .  S
O528        C536   1.269       .  A
O529       Cr537   1.968       .  S
O529        C530   1.254       .  A
O531       Cr538   2.015       .  S
O532       Cr538   1.969       .  S
O532        C533   1.259       .  A
C533        O534   1.269       .  A
C533        C552   1.435       .  S
O535       Cr539   1.956       .  S
O535        C536   1.254       .  A
C536        C545   1.434       .  S
Cr537       O540   1.768       .  S
Cr539       O540   1.768       .  S
C541        C542   1.206       .  T
C542        C543   1.411       .  S
C543        C544   1.205       .  T
C545        C546   1.206       .  T
C546        C547   1.413       .  S
C547        C548   1.206       .  T
C549        C550   1.206       .  T
C550        C755   1.412       .  S
C551        C552   1.206       .  T
C551        C754   1.412   1_545  S
C553        C554   1.207       .  T
C554        C555   1.414       .  S
C555        C556   1.206       .  T
C557        C558   1.206       .  T
C558        C559   1.411       .  S
C559        C560   1.206       .  T
C561        C562   1.207       .  T
C562        C563   1.415       .  S
C565        C566   1.204       .  T
C566        C567   1.409       .  S
C567        C772   1.204       .  T
C568        C771   1.204   1_545  T
C569        C668   1.432       .  S
C569        C570   1.204       .  T
C570        C571   1.409       .  S
C571        C572   1.204   1_554  T
C573        C574   1.208       .  T
C574        C575   1.416   1_556  S
C575        C576   1.208       .  T
C577        C578   1.207       .  T
C578        C579   1.414       .  S
C579        C580   1.207       .  T
C581        C582   1.207       .  T
C582        C583   1.414       .  S
C583        C584   1.206       .  T
C585        C586   1.206       .  T
C587        C588   1.206       .  T
C589        C590   1.204       .  T
C590        C591   1.409       .  S
C593        C594   1.204   1_554  T
C594        C595   1.409       .  S
C595        C596   1.204       .  T
C597        C598   1.206       .  T
C598        C599   1.411       .  S
C599        C600   1.206       .  T
C601        C806   1.207   1_545  T
C602        C805   1.207       .  T
C602        C603   1.415       .  S
C603        C604   1.207       .  T
C605        C606   1.206       .  T
C606        C607   1.411       .  S
C607        C608   1.205       .  T
C609        C610   1.206       .  T
C610        C611   1.413       .  S
C611        C612   1.205       .  T
O613       Cr631   1.954       .  S
O613        C621   1.253       .  A
O614       Cr631   2.021       .  S
O614        C615   1.268       .  A
C615        O616   1.258       .  A
C615        C801   1.434       .  S
O616       Cr632   1.967       .  S
O617       Cr632   2.015       .  S
O617        C618   1.264       .  A
C618        O619   1.255       .  A
C618        C793   1.433       .  S
O619       Cr633   1.969       .  S
O620       Cr633   2.028       .  S
O620        C621   1.269       .  A
C621        C812   1.432       .  S
O622       Cr631   2.024       .  S
O622        C630   1.267       .  A
O623       Cr631   1.966       .  S
O623        C624   1.255       .  A
C624        O625   1.265       .  A
C624        C797   1.432       .  S
O625       Cr632   2.015       .  S
O626        C627   1.257       .  A
C627        C813   1.436       .  S
O628       Cr633   2.025       .  S
O629       Cr633   1.963       .  S
O629        C630   1.254       .  A
C630        C805   1.437       .  S
Cr631       O634   1.768       .  S
Cr632       O634   1.772       .  S
Cr633       O634   1.768       .  S
O635       Cr653   2.010       .  S
O635        C643   1.264       .  A
O636       Cr653   1.971       .  S
O636        C637   1.257       .  A
C637        O638   1.265       .  A
C637        C804   1.435       .  S
O638       Cr654   2.013       .  S
O639       Cr654   1.970       .  S
O639        C640   1.257       .  A
C640        O641   1.268       .  A
C640        C780   1.439       .  S
O641       Cr655   2.023       .  S
O642       Cr655   1.980       .  S
O642        C643   1.260       .  A
C643        C785   1.437       .  S
O644       Cr653   1.969       .  S
O644        C652   1.257       .  A
O645       Cr653   2.014       .  S
O645        C646   1.265       .  A
C646        O647   1.257       .  A
C646        C789   1.435       .  S
O647       Cr654   1.972       .  S
O648       Cr654   2.011       .  S
O648        C649   1.264       .  A
C649        O650   1.259       .  A
C649        C808   1.438       .  S
O650       Cr655   1.979       .  S
O651       Cr655   2.021       .  S
O651        C652   1.268       .  A
C652        C781   1.437       .  S
Cr653       O656   1.774       .  S
Cr654       O656   1.773       .  S
Cr655       O656   1.774       .  S
O657       Cr675   1.958       .  S
O657        C665   1.252       .  A
O658       Cr675   2.025       .  S
O658        C659   1.270       .  A
C659        O660   1.257       .  A
C659        C809   1.434       .  S
O661       Cr676   2.014       .  S
C662        O663   1.256       .  A
C662        C772   1.432       .  S
O663       Cr677   1.970       .  S
O664       Cr677   2.026       .  S
O664        C665   1.267       .  A
C665        C788   1.435       .  S
O666       Cr675   2.029       .  S
O666        C674   1.269       .  A
O667       Cr675   1.968       .  S
O667        C668   1.254       .  A
O669       Cr676   2.015       .  S
O670       Cr676   1.969       .  S
O670        C671   1.259       .  A
C671        O672   1.269       .  A
C671        C792   1.435       .  S
O673       Cr677   1.956       .  S
O673        C674   1.254       .  A
C674        C816   1.434       .  S
Cr675       O678   1.768       .  S
Cr677       O678   1.768       .  S
O679       Cr697   2.010       .  S
O679        C687   1.264       .  A
O680       Cr697   1.971       .  S
O680        C681   1.257       .  A
C681        O682   1.265       .  A
C681        C761   1.435       .  S
O682       Cr698   2.013       .  S
O683       Cr698   1.970       .  S
O683        C684   1.257       .  A
C684        O685   1.268       .  A
C684        C777   1.439       .  S
O685       Cr699   2.023       .  S
O686       Cr699   1.980       .  S
O686        C687   1.260       .  A
C687        C757   1.437       .  S
O688       Cr697   1.969       .  S
O688        C696   1.257       .  A
O689       Cr697   2.014       .  S
O689        C690   1.265       .  A
C690        O691   1.257       .  A
C690        C753   1.435       .  S
O691       Cr698   1.972       .  S
O692       Cr698   2.011       .  S
O692        C693   1.264       .  A
C693        O694   1.259       .  A
C693        C765   1.438       .  S
O694       Cr699   1.979       .  S
O695       Cr699   2.021       .  S
O695        C696   1.268       .  A
C696        C784   1.437       .  S
Cr697       O700   1.774       .  S
Cr698       O700   1.773       .  S
Cr699       O700   1.774       .  S
O701       Cr719   1.954       .  S
O701        C709   1.253       .  A
O702       Cr719   2.021       .  S
O702        C703   1.268       .  A
C703        O704   1.258       .  A
C703        C764   1.434       .  S
O704       Cr720   1.967       .  S
O705       Cr720   2.014       .  S
O705        C706   1.264       .  A
C706        O707   1.255       .  A
C706        C769   1.433       .  S
O707       Cr721   1.969       .  S
O708       Cr721   2.028       .  S
O708        C709   1.269       .  A
C709        C748   1.432       .  S
O710       Cr719   2.024       .  S
O710        C718   1.267       .  A
O711       Cr719   1.966       .  S
O711        C712   1.255       .  A
C712        O713   1.265       .  A
C712        C776   1.432       .  S
O713       Cr720   2.015       .  S
O714        C715   1.257       .  A
C715        C752   1.436       .  S
O716       Cr721   2.025       .  S
O717       Cr721   1.963       .  S
O717        C718   1.254       .  A
C718        C768   1.437       .  S
Cr719       O722   1.768       .  S
Cr720       O722   1.772       .  S
Cr721       O722   1.768       .  S
O723       Cr741   1.958       .  S
O723        C731   1.253       .  A
O724       Cr741   2.025       .  S
O724        C725   1.271       .  A
C725        O726   1.257       .  A
C725        C745   1.434       .  S
O727       Cr742   2.014       .  S
C728        O729   1.256       .  A
C728        C796   1.432       .  S
O729       Cr743   1.970       .  S
O730       Cr743   2.026       .  S
O730        C731   1.267       .  A
C731        C760   1.435       .  S
O732       Cr741   2.029       .  S
O732        C740   1.269       .  A
O733       Cr741   1.968       .  S
O733        C734   1.254       .  A
O735       Cr742   2.015       .  S
O736       Cr742   1.969       .  S
O736        C737   1.259       .  A
C737        O738   1.269       .  A
C737        C756   1.435       .  S
O739       Cr743   1.956       .  S
O739        C740   1.254       .  A
C740        C749   1.434       .  S
Cr741       O744   1.768       .  S
Cr743       O744   1.768       .  S
C745        C746   1.206       .  T
C746        C747   1.411       .  S
C747        C748   1.205       .  T
C749        C750   1.206       .  T
C750        C751   1.413       .  S
C751        C752   1.206       .  T
C753        C754   1.206       .  T
C755        C756   1.206       .  T
C757        C758   1.207       .  T
C758        C759   1.414       .  S
C759        C760   1.206       .  T
C761        C762   1.206       .  T
C762        C763   1.411       .  S
C763        C764   1.206       .  T
C765        C766   1.207       .  T
C766        C767   1.415       .  S
C769        C770   1.204       .  T
C770        C771   1.409       .  S
C773        C774   1.204       .  T
C774        C775   1.409       .  S
C775        C776   1.204   1_554  T
C777        C778   1.208       .  T
C778        C779   1.416   1_556  S
C779        C780   1.208       .  T
C781        C782   1.207       .  T
C782        C783   1.414       .  S
C783        C784   1.207       .  T
C785        C786   1.207       .  T
C786        C787   1.414       .  S
C787        C788   1.206       .  T
C789        C790   1.206       .  T
C791        C792   1.206       .  T
C793        C794   1.204       .  T
C794        C795   1.409       .  S
C797        C798   1.204   1_554  T
C798        C799   1.409       .  S
C799        C800   1.204       .  T
C801        C802   1.206       .  T
C802        C803   1.411       .  S
C803        C804   1.206       .  T
C806        C807   1.415       .  S
C807        C808   1.207       .  T
C809        C810   1.206       .  T
C810        C811   1.411       .  S
C811        C812   1.205       .  T
C813        C814   1.206       .  T
C814        C815   1.413       .  S
C815        C816   1.205       .  T
