geometry optimzed in LAMMPS
_audit_creation_date              2020-12-01 
_audit_creation_method            'lammps2cif' 
_symmetry_space_group_name_H-M    'P1' 
_symmetry_Int_Tables_number       1 
_symmetry_cell_setting            triclinic 
loop_ 
_symmetry_equiv_pos_as_xyz 
  x,y,z 
_cell_length_a                    26.71289922 
_cell_length_b                    26.52416405931136 
_cell_length_c                    26.721018118717993 
_cell_angle_alpha                 90.15194142202783 
_cell_angle_beta                  90.85991895798354 
_cell_angle_gamma                 89.98427222847519 
loop_ 
_atom_site_label 
_atom_site_type_symbol 
_atom_site_fract_x 
_atom_site_fract_y 
_atom_site_fract_z 
_atom_site_charge 
N1          N  0.72632886  0.13804434  0.76122983    -0.26900
N2          N  0.70036918  0.16675057  0.79173581    -0.34700
C3          C  0.65391406  0.14860310  0.79520676     0.01500
C4          C  0.65049734  0.10557190  0.76624208     0.07500
C5          C  0.69729763  0.09959108  0.74535176    -0.05600
H6          H  0.62486819  0.16516022  0.81777521     0.08100
H7          H  0.70908904  0.07015723  0.72001501     0.09300
Cu8        Cu  0.72795655  0.22942356  0.82699296     0.44200
Cu9        Cu  0.79649163  0.15891514  0.73837850     0.42000
Cu10       Cu  0.84513998  0.27975939  0.78764319     0.43900
N11         N  0.75634235  0.29593954  0.85332489    -0.34300
N12         N  0.79836437  0.31589203  0.83723859    -0.28500
C13         C  0.80501850  0.36081205  0.85946421    -0.04600
C14         C  0.76569263  0.36885672  0.89185888     0.07600
C15         C  0.73562915  0.32679596  0.88706499     0.01400
H16         H  0.83694870  0.38511355  0.85374770     0.09000
H17         H  0.70172322  0.31868590  0.90716900     0.08100
N18         N  0.87618456  0.23968814  0.72936137    -0.35700
N19         N  0.85615639  0.19826780  0.71009508    -0.27900
C20         C  0.87755668  0.18840399  0.66619578    -0.03100
C21         C  0.91355540  0.22464472  0.65745380     0.05500
C22         C  0.91244858  0.25599149  0.69900396     0.03600
H23         H  0.86610788  0.15818613  0.64125972     0.08700
H24         H  0.93427625  0.28978861  0.70548313     0.07500
N25         N  0.84034249  0.74793909  0.30957097    -0.26900
N26         N  0.81684221  0.78536249  0.33159200    -0.34700
C27         C  0.82822895  0.78551075  0.38054857     0.01500
C28         C  0.86105001  0.74613685  0.39035068     0.07500
C29         C  0.86884408  0.72416418  0.34376286    -0.05600
H30         H  0.81299355  0.81252410  0.40634735     0.08100
H31         H  0.89358440  0.69326022  0.33488536     0.09300
Cu32       Cu  0.76936915  0.83363547  0.29525966     0.44200
Cu33       Cu  0.82468577  0.72524566  0.23717949     0.42000
Cu34       Cu  0.71231842  0.78255765  0.18417878     0.43900
N35         N  0.70968559  0.86619268  0.25972706    -0.34300
N36         N  0.68600638  0.84496686  0.22145931    -0.28500
C37         C  0.64303520  0.86972569  0.21294490    -0.04600
C38         C  0.63992338  0.90862167  0.24738551     0.07600
C39         C  0.68335954  0.90590604  0.27582936     0.01400
H40         H  0.61555887  0.85954954  0.18451118     0.09000
H41         H  0.69403241  0.92940896  0.30737481     0.08100
N42         N  0.74621529  0.71951611  0.15497267    -0.35700
N43         N  0.78670350  0.69841620  0.17474931    -0.27900
C44         C  0.79703641  0.65616768  0.14928375    -0.03100
C45         C  0.76191476  0.65087002  0.11102594     0.05500
C46         C  0.73028571  0.69181081  0.11568635     0.03600
H47         H  0.82780513  0.63100539  0.15808052     0.08700
H48         H  0.69785514  0.70059230  0.09258023     0.07500
N49         N  0.17531841  0.77533239  0.66619931    -0.26900
N50         N  0.15139332  0.73822818  0.68811661    -0.34700
C51         C  0.11927969  0.71749058  0.65500239     0.01500
C52         C  0.12499237  0.74084788  0.60887004     0.07500
C53         C  0.16034974  0.77823618  0.61820116    -0.05600
H54         H  0.09391579  0.68730276  0.66425285     0.08100
H55         H  0.17546280  0.80526708  0.59251763     0.09300
Cu56       Cu  0.17253457  0.70950232  0.75691637     0.44200
Cu57       Cu  0.22939817  0.81831265  0.70105506     0.42000
Cu58       Cu  0.29527142  0.75374443  0.79906689     0.43900
N59         N  0.21743330  0.67239136  0.80857982    -0.34300
N60         N  0.26222138  0.68787163  0.82316894    -0.28500
C61         C  0.28216812  0.65363450  0.85448827    -0.04600
C62         C  0.24934279  0.61314433  0.85875484     0.07600
C63         C  0.20797451  0.62768775  0.82977587     0.01400
H64         H  0.31762498  0.65892065  0.87378676     0.09000
H65         H  0.17297387  0.60834642  0.82397925     0.08100
N66         N  0.31793349  0.82209497  0.77027265    -0.35700
N67         N  0.29152357  0.84744379  0.73661381    -0.27900
C68         C  0.31502458  0.89078793  0.72626043    -0.03100
C69         C  0.35934425  0.89195947  0.75355634     0.05500
C70         C  0.35975378  0.84806525  0.78144790     0.03600
H71         H  0.30168927  0.91839796  0.69946870     0.08700
H72         H  0.38866532  0.83564612  0.80739797     0.07500
N73         N  0.31379997  0.19013686  0.23368523    -0.26900
N74         N  0.28458439  0.16233278  0.26187029    -0.34700
C75         C  0.30849214  0.11972226  0.27474347     0.01500
C76         C  0.35515555  0.12111579  0.25357366     0.07500
C77         C  0.35741905  0.16605113  0.22770506    -0.05600
H78         H  0.29285117  0.08985639  0.29714769     0.08100
H79         H  0.38816300  0.17981109  0.20566143     0.09300
Cu80       Cu  0.21391486  0.18360053  0.27999298     0.44200
Cu81       Cu  0.29181974  0.25841032  0.20397130     0.42000
Cu82       Cu  0.16129127  0.29517934  0.22216534     0.43900
N83         N  0.14493724  0.21154379  0.29582533    -0.34300
N84         N  0.12294203  0.24974017  0.27279975    -0.28500
C85         C  0.07932336  0.25928339  0.29574227    -0.04600
C86         C  0.07549429  0.22722988  0.33676328     0.07600
C87         C  0.11761479  0.19726968  0.33478758     0.01400
H88         H  0.05461625  0.29018497  0.28603952     0.09000
H89         H  0.12958176  0.16950061  0.36205496     0.08100
N90         N  0.21438070  0.33887362  0.18488460    -0.35700
N91         N  0.26133100  0.32519624  0.17849211    -0.27900
C92         C  0.28481577  0.36037797  0.15146864    -0.03100
C93         C  0.25193860  0.39987110  0.14114632     0.05500
C94         C  0.20711789  0.38359594  0.16236228     0.03600
H95         H  0.32225629  0.35521808  0.13774500     0.08700
H96         H  0.17075090  0.40110581  0.15982496     0.07500
N97         N  0.97001855  0.17231435  0.54265112    -0.36200
N98         N  0.97214060  0.28839678  0.54527733    -0.56800
N99         N  0.00614349  0.28815052  0.44481183    -0.36200
N100        N  0.01145196  0.17207723  0.44706574    -0.56800
C101        C  0.96226808  0.18345814  0.59128705     0.27400
C102        C  0.98175334  0.12219657  0.53967950     0.27400
C103        C  0.00919628  0.33885578  0.45438121     0.27400
C104        C  0.03426366  0.27806304  0.40409963     0.27400
C105        C  0.94570479  0.27764982  0.58682898     0.36000
C106        C  0.96715775  0.33885824  0.53666266     0.36000
C107        C  0.00471843  0.12116186  0.45049469     0.36000
C108        C  0.02536117  0.18208800  0.39963822     0.36000
C109        C  0.96943916  0.14006533  0.61957447    -0.21500
C110        C  0.98046288  0.10152953  0.58718001    -0.21500
C111        C  0.03698092  0.36121073  0.41738540    -0.21500
C112        C  0.05449950  0.32331929  0.38749588    -0.21500
C113        C  0.92395103  0.32177294  0.60441341    -0.22500
C114        C  0.93890894  0.36031932  0.57404743    -0.22500
C115        C  0.01506635  0.09873418  0.40510472    -0.22500
C116        C  0.02732861  0.13698486  0.37293927    -0.22500
C117        C  0.94252553  0.22943857  0.61052836    -0.17900
C118        C  0.99218504  0.09461711  0.49502153    -0.17900
C119        C  0.04187583  0.22977125  0.38086235    -0.17900
C120        C  0.98834263  0.36568373  0.49580141    -0.17900
H121        H  0.96567125  0.13607275  0.65963869     0.15000
H122        H  0.98632701  0.06278997  0.59809921     0.15000
H123        H  0.04521411  0.40070905  0.41249114     0.15000
H124        H  0.08035101  0.32983213  0.35768468     0.15000
H125        H  0.89912423  0.32669222  0.63549543     0.13300
H126        H  0.92881070  0.39940054  0.57905352     0.13300
H127        H  0.01460625  0.05896891  0.39606895     0.13300
H128        H  0.03758295  0.13185454  0.33423626     0.13300
H129        H  0.96090864  0.19646346  0.51334507     0.26600
H130        H  0.98410003  0.26178170  0.46274786     0.26600
N131        N  0.31591995  0.53134850  0.95395064    -0.36200
N132        N  0.31909968  0.47850033  0.04451342    -0.56800
N133        N  0.20064657  0.47792538  0.04282923    -0.36200
N134        N  0.19796409  0.53670825  0.95687975    -0.56800
C135        C  0.36701810  0.52646312  0.95790444     0.27400
C136        C  0.30461457  0.55567293  0.91086736     0.27400
C137        C  0.21666919  0.47162656  0.09061689     0.27400
C138        C  0.15314095  0.49727064  0.04390571     0.27400
C139        C  0.36976369  0.48271507  0.04038920     0.36000
C140        C  0.30902325  0.45452387  0.08778235     0.36000
C141        C  0.21124278  0.54306249  0.90873347     0.36000
C142        C  0.14980555  0.51952711  0.95652550     0.36000
C143        C  0.38787539  0.54683106  0.91531732    -0.21500
C144        C  0.34892741  0.56500487  0.88589318    -0.21500
C145        C  0.17952756  0.48861272  0.12242766    -0.21500
C146        C  0.13942954  0.50439556  0.09306730    -0.21500
C147        C  0.39226759  0.46252943  0.08275474    -0.22500
C148        C  0.35415562  0.44504897  0.11267043    -0.22500
C149        C  0.17154947  0.52863552  0.87768347    -0.22500
C150        C  0.13248361  0.51451140  0.90785543    -0.22500
C151        C  0.39543152  0.50445973  0.99869124    -0.17900
C152        C  0.25528681  0.56868180  0.89313063    -0.17900
C153        C  0.12290592  0.50787663  0.00063064    -0.17900
C154        C  0.25981138  0.44350692  0.10589309    -0.17900
H155        H  0.42708060  0.54803225  0.90583150     0.15000
H156        H  0.35300187  0.58143452  0.84917670     0.15000
H157        H  0.18094284  0.48878685  0.16292931     0.15000
H158        H  0.10443173  0.51956998  0.10635207     0.15000
H159        H  0.43187168  0.46137154  0.09176228     0.13300
H160        H  0.35944451  0.43002386  0.14993258     0.13300
H161        H  0.17120645  0.52692193  0.83724640     0.13300
H162        H  0.09639199  0.50037695  0.89539381     0.13300
H163        H  0.28856063  0.52172357  0.97915637     0.26600
H164        H  0.21925231  0.46428795  0.01147807     0.26600
N165        N  0.53309280  0.97934100  0.19484388    -0.36200
N166        N  0.45051847  0.03995899  0.19549521    -0.56800
N167        N  0.44997386  0.03484937  0.31470990    -0.36200
N168        N  0.54040492  0.98399254  0.31393719    -0.56800
C169        C  0.53191308  0.99234070  0.14519684     0.27400
C170        C  0.58052414  0.96615384  0.20678598     0.27400
C171        C  0.41616709  0.07121190  0.30331177     0.27400
C172        C  0.46050826  0.03737259  0.36523373     0.27400
C173        C  0.44893988  0.03060488  0.14517044     0.36000
C174        C  0.40631059  0.06068979  0.20774597     0.36000
C175        C  0.57695370  0.95111872  0.30148543     0.36000
C176        C  0.53384765  0.98071013  0.36453335     0.36000
C177        C  0.57905924  0.98666552  0.12554074    -0.21500
C178        C  0.60967245  0.97051964  0.16416200    -0.21500
C179        C  0.40368585  0.09603261  0.34733625    -0.21500
C180        C  0.43034048  0.07409302  0.38602976    -0.21500
C181        C  0.40340773  0.04567797  0.12528289    -0.22500
C182        C  0.37651009  0.06474165  0.16463146    -0.22500
C183        C  0.59410396  0.92741155  0.34492180    -0.22500
C184        C  0.56840518  0.94734536  0.38447668    -0.22500
C185        C  0.48938764  0.01009476  0.11756738    -0.17900
C186        C  0.59746486  0.94389368  0.25259193    -0.17900
C187        C  0.49704725  0.00780796  0.39249859    -0.17900
C188        C  0.39392581  0.08175422  0.25523313    -0.17900
H189        H  0.59041898  0.99409134  0.08755784     0.15000
H190        H  0.64918949  0.96229210  0.16102738     0.15000
H191        H  0.37746224  0.12675141  0.35168310     0.15000
H192        H  0.42741366  0.08489536  0.42483000     0.15000
H193        H  0.39088129  0.04338231  0.08665005     0.13300
H194        H  0.33915428  0.08038141  0.16168950     0.13300
H195        H  0.62219636  0.89836497  0.34866103     0.13300
H196        H  0.57431898  0.93728644  0.42325858     0.13300
H197        H  0.50288794  0.97328788  0.21825918     0.26600
H198        H  0.46121883  0.00775017  0.28909701     0.26600
N199        N  0.03914830  0.66963061  0.51906186    -0.36200
N200        N  0.94255654  0.67059518  0.47858863    -0.56800
N201        N  0.94999919  0.79163486  0.47257481    -0.36200
N202        N  0.03498136  0.79111966  0.53038049    -0.56800
C203        C  0.02792186  0.61955138  0.52424734     0.27400
C204        C  0.07517947  0.68154206  0.55322349     0.27400
C205        C  0.90245545  0.77522231  0.46881397     0.27400
C206        C  0.94956623  0.83923276  0.49201198     0.27400
C207        C  0.95182917  0.62056521  0.47141284     0.36000
C208        C  0.90617526  0.68396852  0.44553955     0.36000
C209        C  0.08205226  0.77307958  0.53239100     0.36000
C210        C  0.03709048  0.83875058  0.51166250     0.36000
C211        C  0.05937527  0.59917632  0.56049979    -0.21500
C212        C  0.08969978  0.63763106  0.57780131    -0.21500
C213        C  0.87099381  0.81296335  0.48628501    -0.21500
C214        C  0.90070049  0.85345391  0.50076380    -0.21500
C215        C  0.91955469  0.60176520  0.43500002    -0.22500
C216        C  0.88991250  0.64134207  0.41965327    -0.22500
C217        C  0.11455789  0.80984905  0.51513746    -0.22500
C218        C  0.08608765  0.85143069  0.50192036    -0.22500
C219        C  0.98950675  0.59238464  0.49750018    -0.17900
C220        C  0.09571901  0.73075060  0.56178410    -0.17900
C221        C  0.99359922  0.86814352  0.50171803    -0.17900
C222        C  0.88780345  0.73396180  0.43814560    -0.17900
H223        H  0.06016645  0.56080826  0.57405877     0.15000
H224        H  0.11991946  0.63277808  0.60466964     0.15000
H225        H  0.83061161  0.81158639  0.48820263     0.15000
H226        H  0.88787340  0.88868916  0.51655439     0.15000
H227        H  0.91777633  0.56371748  0.42040705     0.13300
H228        H  0.85951364  0.63847585  0.39263796     0.13300
H229        H  0.15473603  0.80681878  0.51185120     0.13300
H230        H  0.09964941  0.88614385  0.48582356     0.13300
H231        H  0.02527435  0.69480769  0.49245109     0.26600
H232        H  0.98063398  0.77306006  0.45711937     0.26600
N233        N  0.54516340  0.03472689  0.70071414    -0.36200
N234        N  0.45724922  0.97623232  0.69591036    -0.56800
N235        N  0.45713921  0.97343575  0.81317172    -0.36200
N236        N  0.54002096  0.03781095  0.81763783    -0.56800
C237        C  0.54034016  0.03243536  0.64941593     0.27400
C238        C  0.58644646  0.06200878  0.71272295     0.27400
C239        C  0.41326591  0.95127321  0.80038152     0.27400
C240        C  0.45568685  0.98522770  0.86316000     0.27400
C241        C  0.46374372  0.97867020  0.64531226     0.36000
C242        C  0.42001482  0.94298404  0.70478498     0.36000
C243        C  0.58611470  0.05669520  0.80934780     0.36000
C244        C  0.53640985  0.03000470  0.86798022     0.36000
C245        C  0.58008256  0.05835635  0.62908425    -0.21500
C246        C  0.60816352  0.07774100  0.66835938    -0.21500
C247        C  0.38384706  0.94836536  0.84291389    -0.21500
C248        C  0.41048634  0.96962843  0.88215248    -0.21500
C249        C  0.42864916  0.94794318  0.62195746    -0.22500
C250        C  0.40270468  0.92418765  0.65904198    -0.22500
C251        C  0.61155464  0.06093486  0.85522354    -0.22500
C252        C  0.57995774  0.04488752  0.89200044    -0.22500
C253        C  0.50179659  0.00706359  0.62026328    -0.17900
C254        C  0.60595806  0.07253771  0.76220736    -0.17900
C255        C  0.49447059  0.00864737  0.89237813    -0.17900
C256        C  0.39943227  0.93051734  0.75260874    -0.17900
H257        H  0.58853635  0.06282957  0.58991429     0.15000
H258        H  0.64119421  0.10066842  0.66393506     0.15000
H259        H  0.34662436  0.93259350  0.84552903     0.15000
H260        H  0.39790317  0.97323018  0.92030968     0.15000
H261        H  0.42201131  0.94214888  0.58242153     0.13300
H262        H  0.37402809  0.89632203  0.65200497     0.13300
H263        H  0.64957607  0.07360275  0.86183098     0.13300
H264        H  0.58866398  0.04289362  0.93163822     0.13300
H265        H  0.52268895  0.01936699  0.72767597     0.26600
H266        H  0.48758516  0.97440343  0.78959513     0.26600
N267        N  0.81898787  0.47108252  0.96880523    -0.36200
N268        N  0.70004550  0.46637552  0.97072686    -0.56800
N269        N  0.69989752  0.55609707  0.02441142    -0.36200
N270        N  0.81897224  0.55273212  0.03074483    -0.56800
C271        C  0.80569553  0.42407888  0.95473950     0.27400
C272        C  0.86826204  0.46989241  0.98381123     0.27400
C273        C  0.65049284  0.54273425  0.02900937     0.27400
C274        C  0.71275467  0.58554232  0.06408017     0.27400
C275        C  0.71302941  0.43444183  0.93352025     0.36000
C276        C  0.65032895  0.47733078  0.96431368     0.36000
C277        C  0.86902245  0.55386724  0.02073737     0.36000
C278        C  0.80661999  0.59799437  0.05006369     0.36000
C279        C  0.84689852  0.39244265  0.96117865    -0.21500
C280        C  0.88637690  0.42139254  0.97839448    -0.21500
C281        C  0.63189651  0.56455861  0.07188113    -0.21500
C282        C  0.67081599  0.59115012  0.09399683    -0.21500
C283        C  0.67105446  0.42503031  0.90339661    -0.22500
C284        C  0.63156013  0.45170013  0.92307966    -0.22500
C285        C  0.88877614  0.59990326  0.03476576    -0.22500
C286        C  0.84940331  0.62808817  0.05224690    -0.22500
C287        C  0.76087124  0.41073222  0.92824296    -0.17900
C288        C  0.89654092  0.51228170  0.00125889    -0.17900
C289        C  0.75997999  0.61024713  0.07278460    -0.17900
C290        C  0.62245805  0.51040370  0.99578927    -0.17900
H291        H  0.84887437  0.35258233  0.95267032     0.15000
H292        H  0.92384371  0.40773840  0.98580305     0.15000
H293        H  0.59452681  0.56072013  0.08648087     0.15000
H294        H  0.66832923  0.61187526  0.12877824     0.15000
H295        H  0.66884944  0.40159748  0.87026346     0.13300
H296        H  0.59378368  0.45301533  0.90795071     0.13300
H297        H  0.92735082  0.61199791  0.03300376     0.13300
H298        H  0.85240872  0.66630256  0.06621955     0.13300
H299        H  0.79702920  0.50278926  0.96151914     0.26600
H300        H  0.72300226  0.54958684  0.99399342     0.26600
C301        C  0.49903653  0.96575416  0.97810767    -0.25900
C302        C  0.49140258  0.01025299  0.95014062    -0.14000
C303        C  0.48185872  0.05515046  0.97808153     0.36600
C304        C  0.48095396  0.05418905  0.03149185    -0.25400
C305        C  0.48909283  0.00965506  0.05950390    -0.14600
C306        C  0.49787446  0.96488510  0.03156900     0.37700
N307        N  0.50544362  0.91816603  0.05768008    -0.88900
H308        H  0.50620880  0.93110071  0.95791526     0.18800
H309        H  0.47407064  0.08908344  0.05139513     0.18800
N310        N  0.47183498  0.10244731  0.95377658    -0.87900
H311        H  0.51168917  0.88875484  0.03240874     0.35000
H312        H  0.47225410  0.90967124  0.07610412     0.41300
H313        H  0.47145448  0.09884216  0.91488802     0.40900
H314        H  0.50108357  0.12703801  0.96320537     0.35800
C315        C  0.50315444  0.05215182  0.47919936    -0.25900
C316        C  0.49841528  0.00693164  0.45110565    -0.14000
C317        C  0.49555157  0.96178685  0.48021385     0.36600
C318        C  0.50162223  0.96318091  0.53341407    -0.25400
C319        C  0.50222639  0.00850699  0.56164343    -0.14600
C320        C  0.50149374  0.05385982  0.53263798     0.37700
N321        N  0.49651627  0.10270662  0.55543389    -0.88900
H322        H  0.50635938  0.08748034  0.45930557     0.18800
H323        H  0.50298278  0.92762942  0.55323564     0.18800
N324        N  0.48522402  0.91353917  0.45759625    -0.87900
H325        H  0.52975010  0.12259325  0.54992622     0.36200
H326        H  0.49063356  0.10032473  0.59383464     0.41300
H327        H  0.47631240  0.91722258  0.41965128     0.40900
H328        H  0.45279725  0.89938136  0.47389643     0.35800
C329        C  0.03696310  0.54437219  0.97300642    -0.25900
C330        C  0.06461062  0.50877913  0.00162484    -0.14000
C331        C  0.03568764  0.47406048  0.02980803     0.36600
C332        C  0.98221044  0.47746938  0.03053291    -0.25400
C333        C  0.95466569  0.51220988  0.00093480    -0.14600
C334        C  0.98357944  0.54567892  0.97111267     0.37700
N335        N  0.96045499  0.58062036  0.93683079    -0.88900
H336        H  0.05708912  0.57155778  0.95082562     0.18800
H337        H  0.96164298  0.45173106  0.05395515     0.18800
N338        N  0.06041004  0.43415633  0.05675709    -0.87900
H339        H  0.96854061  0.61709286  0.94947789     0.36200
H340        H  0.92160428  0.57681386  0.93557127     0.41300
H341        H  0.07771417  0.41091019  0.03050777     0.40900
H342        H  0.03443044  0.41175192  0.07531865     0.35800
C343        C  0.48043522  0.55082532  0.99643333    -0.25900
C344        C  0.45379467  0.50468022  0.99749780    -0.14000
C345        C  0.48384378  0.46001431  0.99652897     0.36600
C346        C  0.53733693  0.46290741  0.99684685    -0.25400
C347        C  0.56397563  0.50911302  0.99603424    -0.14600
C348        C  0.53391599  0.55339978  0.99479517     0.37700
N349        N  0.55740768  0.60162993  0.99030900    -0.88900
H350        H  0.45935636  0.58572247  0.99619180     0.18800
H351        H  0.55841006  0.42801866  0.99718934     0.18800
N352        N  0.46176004  0.41069577  0.99322600    -0.87900
H353        H  0.54668129  0.62381296  0.02072206     0.36200
H354        H  0.54364402  0.61869720  0.95767089     0.41300
H355        H  0.42289225  0.41237911  0.98938220     0.40900
H356        H  0.46994611  0.39183879  0.02666213     0.35800
C357        C  0.96028821  0.95305908  0.46867783    -0.25900
C358        C  0.99381061  0.92652021  0.50059348    -0.14000
C359        C  0.02629008  0.95661734  0.53117461     0.36600
C360        C  0.02684828  0.01012581  0.52629114    -0.25400
C361        C  0.99221467  0.03647034  0.49567784    -0.14600
C362        C  0.95772900  0.00656905  0.46719581     0.37700
N363        N  0.91839217  0.02879419  0.43728923    -0.88900
H364        H  0.93475609  0.93202551  0.44471954     0.18800
H365        H  0.05364078  0.03178805  0.54827726     0.18800
N366        N  0.05756793  0.93324872  0.56868183    -0.87900
H367        H  0.92560706  0.02071425  0.39977139     0.36200
H368        H  0.91730691  0.06791806  0.44106805     0.41300
H369        H  0.03405917  0.91664197  0.59487156     0.40900
H370        H  0.07890227  0.96020553  0.58804500     0.35800
C371        C  0.03354247  0.50595075  0.49375248    -0.25900
C372        C  0.98863664  0.53392121  0.49739236    -0.14000
C373        C  0.94386609  0.50525594  0.50233881     0.36600
C374        C  0.94474272  0.45170242  0.49820965    -0.25400
C375        C  0.98977516  0.42389553  0.49682481    -0.14600
C376        C  0.03503474  0.45254937  0.49710375     0.37700
N377        N  0.08341186  0.42931726  0.50305605    -0.88900
H378        H  0.06867559  0.52587701  0.49024947     0.18800
H379        H  0.90966491  0.43123690  0.49830161     0.18800
N380        N  0.89752876  0.53026707  0.51317669    -0.87900
H381        H  0.10362964  0.43538104  0.47042929     0.36200
H382        H  0.08075115  0.39050736  0.50863471     0.41300
H383        H  0.90164103  0.54744625  0.54825549     0.40900
H384        H  0.86836986  0.50421246  0.51615255     0.35800
loop_ 
_geom_bond_atom_site_label_1 
_geom_bond_atom_site_label_2 
_geom_bond_distance 
_geom_bond_site_symmetry_2 
_ccdc_geom_bond_type 
N1            N2   1.319       .  A
N1            C5   1.345       .  A
N1           Cu9   2.056       .  S
N2            C3   1.336       .  A
N2           Cu8   2.041       .  S
C3            C4   1.380       .  A
C3            H6   1.082       .  S
C4            C5   1.386       .  A
C4          C254   1.480       .  S
C5            H7   1.082       .  S
Cu8          N11   2.040       .  S
Cu9          N19   2.060       .  S
Cu10         N12   2.068       .  S
Cu10         N18   2.067       .  S
N11          N12   1.319       .  A
N11          C15   1.342       .  A
N12          C13   1.341       .  A
C13          C14   1.387       .  A
C13          H16   1.082       .  S
C14          C15   1.379       .  A
C14         C287   1.481       .  S
C15          H17   1.082       .  S
N18          N19   1.322       .  A
N18          C22   1.345       .  A
N19          C20   1.338       .  A
C20          C21   1.383       .  A
C20          H23   1.082       .  S
C21          C22   1.386       .  A
C21         C117   1.489       .  S
C22          H24   1.082       .  S
N25          N26   1.317       .  A
N25          C29   1.339       .  A
N25         Cu33   2.061       .  S
N26          C27   1.339       .  A
N26         Cu32   2.039       .  S
C27          C28   1.386       .  A
C27          H30   1.077       .  S
C28          C29   1.392       .  A
C28         C222   1.490       .  S
C29          H31   1.081       .  S
Cu32         N35   2.036       .  S
Cu33         N43   2.064       .  S
Cu34         N36   2.059       .  S
Cu34         N42   2.059       .  S
N35          N36   1.319       .  A
N35          C39   1.340       .  A
N36          C37   1.339       .  A
C37          C38   1.384       .  A
C37          H40   1.082       .  S
C38          C39   1.379       .  A
C38         C186   1.478       .  S
C39          H41   1.082       .  S
N42          N43   1.321       .  A
N42          C46   1.344       .  A
N43          C44   1.340       .  A
C44          C45   1.384       .  A
C44          H47   1.082       .  S
C45          C46   1.382       .  A
C45         C289   1.483       .  S
C46          H48   1.082       .  S
N49          N50   1.317       .  A
N49          C53   1.340       .  A
N49         Cu57   2.052       .  S
N50          C51   1.340       .  A
N50         Cu56   2.063       .  S
C51          C52   1.392       .  A
C51          H54   1.081       .  S
C52          C53   1.389       .  A
C52         C220   1.495       .  S
C53          H55   1.077       .  S
Cu56         N59   2.066       .  S
Cu57         N67   2.050       .  S
Cu58         N60   2.067       .  S
Cu58         N66   2.066       .  S
N59          N60   1.318       .  A
N59          C63   1.341       .  A
N60          C61   1.341       .  A
C61          C62   1.393       .  A
C61          H64   1.081       .  S
C62          C63   1.395       .  A
C62         C152   1.504       .  S
C63          H65   1.076       .  S
N66          N67   1.320       .  A
N66          C70   1.342       .  A
N67          C68   1.342       .  A
C68          C69   1.382       .  A
C68          H71   1.082       .  S
C69          C70   1.384       .  A
C69         C256   1.482       .  S
C70          H72   1.082       .  S
N73          N74   1.319       .  A
N73          C77   1.340       .  A
N73         Cu81   2.061       .  S
N74          C75   1.341       .  A
N74         Cu80   2.035       .  S
C75          C76   1.377       .  A
C75          H78   1.082       .  S
C76          C77   1.381       .  A
C76         C188   1.471       .  S
C77          H79   1.082       .  S
Cu80         N83   2.036       .  S
Cu81         N91   2.062       .  S
Cu82         N84   2.094       .  S
Cu82         N90   2.097       .  S
N83          N84   1.320       .  A
N83          C87   1.336       .  A
N84          C85   1.348       .  A
C85          C86   1.394       .  A
C85          H88   1.082       .  S
C86          C87   1.379       .  A
C86         C119   1.494       .  S
C87          H89   1.082       .  S
N90          N91   1.319       .  A
N90          C94   1.344       .  A
N91          C92   1.343       .  A
C92          C93   1.392       .  A
C92          H95   1.079       .  S
C93          C94   1.401       .  A
C93         C154   1.511       .  S
C94          H96   1.078       .  S
N97         C102   1.368       .  A
N97         C101   1.351       .  A
N97         H129   1.039       .  S
N98         C105   1.356       .  A
N98         C106   1.365       .  A
N99         C104   1.357       .  A
N99         C103   1.371       .  A
N99         H130   1.037   1_455  S
N100        C107   1.366       .  A
N100        C108   1.353       .  A
C101        C109   1.390       .  A
C101        C117   1.426       .  A
C102        C118   1.429       .  A
C102        C110   1.385       .  A
C103        C111   1.380       .  A
C103        C120   1.434   1_455  A
C104        C119   1.438       .  A
C104        C112   1.393       .  A
C105        C117   1.432       .  A
C105        C113   1.390       .  A
C106        C120   1.429       .  A
C106        C114   1.382       .  A
C107        C115   1.381       .  A
C107        C118   1.428   1_455  A
C108        C116   1.393       .  A
C108        C119   1.434       .  A
C109        C110   1.372       .  A
C109        H121   1.082       .  S
C110        H122   1.080       .  S
C111        C112   1.369       .  A
C111        H123   1.079       .  S
C112        H124   1.076       .  S
C113        C114   1.370       .  A
C113        H125   1.078       .  S
C114        H126   1.080       .  S
C115        C116   1.374       .  A
C115        H127   1.081       .  S
C116        H128   1.082       .  S
C118        C361   1.542       .  S
C120        C375   1.545       .  S
N131        C136   1.351       .  A
N131        C135   1.374       .  A
N131        H163   1.034       .  S
N132        C139   1.364       .  A
N132        C140   1.352       .  A
N133        C138   1.369       .  A
N133        C137   1.351       .  A
N133        H164   1.044       .  S
N134        C141   1.351       .  A
N134        C142   1.365       .  A
C135        C143   1.386       .  A
C135        C151   1.443       .  A
C136        C152   1.436       .  A
C136        C144   1.390       .  A
C137        C145   1.390       .  A
C137        C154   1.428       .  A
C138        C153   1.429       .  A
C138        C146   1.382       .  A
C139        C151   1.439   1_554  A
C139        C147   1.383       .  A
C140        C154   1.438       .  A
C140        C148   1.391       .  A
C141        C149   1.390       .  A
C141        C152   1.427       .  A
C142        C150   1.380       .  A
C142        C153   1.424   1_556  A
C143        C144   1.382       .  A
C143        H155   1.082       .  S
C144        H156   1.082       .  S
C145        C146   1.384       .  A
C145        H157   1.082       .  S
C146        H158   1.082       .  S
C147        C148   1.385       .  A
C147        H159   1.082       .  S
C148        H160   1.081       .  S
C149        C150   1.381       .  A
C149        H161   1.081       .  S
C150        H162   1.082       .  S
C151        C344   1.560       .  S
C153        C330   1.558       .  S
N165        C170   1.348       .  A
N165        C169   1.371       .  A
N165        H197   1.041       .  S
N166        C173   1.367       .  A
N166        C174   1.347       .  A
N167        C172   1.376       .  A
N167        C171   1.353       .  A
N167        H198   1.039       .  S
N168        C175   1.353       .  A
N168        C176   1.369       .  A
C169        C177   1.380       .  A
C169        C185   1.426   1_565  A
C170        C186   1.428       .  A
C170        C178   1.394       .  A
C171        C179   1.391       .  A
C171        C188   1.435       .  A
C172        C187   1.442       .  A
C172        C180   1.385       .  A
C173        C185   1.424       .  A
C173        C181   1.380       .  A
C174        C188   1.428       .  A
C174        C182   1.395       .  A
C175        C183   1.393       .  A
C175        C186   1.437       .  A
C176        C184   1.381       .  A
C176        C187   1.435   1_565  A
C177        C178   1.376       .  A
C177        H189   1.082       .  S
C178        H190   1.082       .  S
C179        C180   1.377       .  A
C179        H191   1.082       .  S
C180        H192   1.079       .  S
C181        C182   1.377       .  A
C181        H193   1.082       .  S
C182        H194   1.082       .  S
C183        C184   1.374       .  A
C183        H195   1.079       .  S
C184        H196   1.080       .  S
C185        C305   1.551       .  S
C187        C316   1.566       .  S
N199        C204   1.353       .  A
N199        C203   1.370       .  A
N199        H231   1.041       .  S
N200        C207   1.363       .  A
N200        C208   1.351       .  A
N201        C206   1.364       .  A
N201        C205   1.345       .  A
N201        H232   1.045       .  S
N202        C209   1.346       .  A
N202        C210   1.361       .  A
C203        C211   1.384       .  A
C203        C219   1.435   1_455  A
C204        C220   1.432       .  A
C204        C212   1.391       .  A
C205        C213   1.391       .  A
C205        C222   1.417       .  A
C206        C221   1.424       .  A
C206        C214   1.382       .  A
C207        C219   1.428       .  A
C207        C215   1.382       .  A
C208        C222   1.427       .  A
C208        C216   1.390       .  A
C209        C217   1.390       .  A
C209        C220   1.417       .  A
C210        C218   1.380       .  A
C210        C221   1.421   1_455  A
C211        C212   1.377       .  A
C211        H223   1.081       .  S
C212        H224   1.080       .  S
C213        C214   1.386       .  A
C213        H225   1.081       .  S
C214        H226   1.082       .  S
C215        C216   1.374       .  A
C215        H227   1.082       .  S
C216        H228   1.081       .  S
C217        C218   1.383       .  A
C217        H229   1.081       .  S
C218        H230   1.082       .  S
C219        C372   1.551       .  S
C221        C358   1.549       .  S
N233        C238   1.353       .  A
N233        C237   1.376       .  A
N233        H265   1.030       .  S
N234        C241   1.367       .  A
N234        C242   1.353       .  A
N235        C240   1.372       .  A
N235        C239   1.350       .  A
N235        H266   1.037       .  S
N236        C243   1.351       .  A
N236        C244   1.366       .  A
C237        C245   1.384       .  A
C237        C253   1.447       .  A
C238        C254   1.441       .  A
C238        C246   1.393       .  A
C239        C247   1.394       .  A
C239        C256   1.432       .  A
C240        C255   1.429   1_565  A
C240        C248   1.381       .  A
C241        C253   1.439   1_565  A
C241        C249   1.383       .  A
C242        C256   1.438       .  A
C242        C250   1.392       .  A
C243        C251   1.397       .  A
C243        C254   1.438       .  A
C244        C252   1.378       .  A
C244        C255   1.423       .  A
C245        C246   1.379       .  A
C245        H257   1.081       .  S
C246        H258   1.080       .  S
C247        C248   1.378       .  A
C247        H259   1.082       .  S
C248        H260   1.082       .  S
C249        C250   1.372       .  A
C249        H261   1.079       .  S
C250        H262   1.079       .  S
C251        C252   1.374       .  A
C251        H263   1.082       .  S
C252        H264   1.082       .  S
C253        C319   1.567       .  S
C255        C302   1.547       .  S
N267        C272   1.371       .  A
N267        C271   1.347       .  A
N267        H299   1.042       .  S
N268        C275   1.353       .  A
N268        C276   1.368       .  A
N269        C274   1.355       .  A
N269        C273   1.374       .  A
N269        H300   1.042   1_554  S
N270        C277   1.368       .  A
N270        C278   1.348       .  A
C271        C279   1.393       .  A
C271        C287   1.426       .  A
C272        C288   1.428   1_556  A
C272        C280   1.382       .  A
C273        C281   1.381       .  A
C273        C290   1.435   1_554  A
C274        C289   1.437       .  A
C274        C282   1.394       .  A
C275        C287   1.433       .  A
C275        C283   1.393       .  A
C276        C290   1.430       .  A
C276        C284   1.381       .  A
C277        C285   1.379       .  A
C277        C288   1.427       .  A
C278        C286   1.395       .  A
C278        C289   1.431       .  A
C279        C280   1.377       .  A
C279        H291   1.082       .  S
C280        H292   1.080       .  S
C281        C282   1.381       .  A
C281        H293   1.082       .  S
C282        H294   1.081       .  S
C283        C284   1.380       .  A
C283        H295   1.081       .  S
C284        H296   1.082       .  S
C285        C286   1.377       .  A
C285        H297   1.081       .  S
C286        H298   1.082       .  S
C288        C333   1.553       .  S
C290        C347   1.563       .  S
C301        C302   1.412   1_565  A
C301        C306   1.430   1_556  A
C301        H308   1.083       .  S
C302        C303   1.429       .  A
C303        C304   1.428   1_556  A
C303        N310   1.437       .  S
C304        C305   1.415       .  A
C304        H309   1.083       .  S
C305        C306   1.422   1_545  A
C306        N307   1.436       .  S
N307        H311   1.045       .  S
N307        H312   1.045       .  S
N310        H313   1.043       .  S
N310        H314   1.045       .  S
C315        C316   1.418       .  A
C315        C320   1.430       .  A
C315        H322   1.083       .  S
C316        C317   1.432   1_545  A
C317        C318   1.429       .  A
C317        N324   1.439       .  S
C318        C319   1.418   1_565  A
C318        H323   1.083       .  S
C319        C320   1.433       .  A
C320        N321   1.437       .  S
N321        H325   1.045       .  S
N321        H326   1.042       .  S
N324        H327   1.043       .  S
N324        H328   1.046       .  S
C329        C330   1.417   1_556  A
C329        C334   1.427   1_455  A
C329        H336   1.083       .  S
C330        C331   1.426       .  A
C331        C332   1.432   1_455  A
C331        N338   1.437       .  S
C332        C333   1.415       .  A
C332        H337   1.083       .  S
C333        C334   1.429   1_554  A
C334        N335   1.438       .  S
N335        H339   1.045       .  S
N335        H340   1.043       .  S
N338        H341   1.046       .  S
N338        H342   1.045       .  S
C343        C344   1.417       .  A
C343        C348   1.432       .  A
C343        H350   1.083       .  S
C344        C345   1.431       .  A
C345        C346   1.431       .  A
C345        N352   1.437       .  S
C346        C347   1.418       .  A
C346        H351   1.083       .  S
C347        C348   1.423       .  A
C348        N349   1.431       .  S
N349        H353   1.046   1_556  S
N349        H354   1.046       .  S
N352        H355   1.043       .  S
N352        H356   1.045   1_556  S
C357        C358   1.416       .  A
C357        C362   1.422   1_565  A
C357        H364   1.082       .  S
C358        C359   1.426   1_655  A
C359        C360   1.426   1_565  A
C359        N366   1.437       .  S
C360        C361   1.412   1_455  A
C360        H365   1.083       .  S
C361        C362   1.426       .  A
C362        N363   1.438       .  S
N363        H367   1.045       .  S
N363        H368   1.043       .  S
N366        H369   1.046       .  S
N366        H370   1.046       .  S
C371        C372   1.415   1_455  A
C371        C376   1.420       .  A
C371        H378   1.083       .  S
C372        C373   1.425       .  A
C373        C374   1.425       .  A
C373        N380   1.437       .  S
C374        C375   1.412       .  A
C374        H379   1.083       .  S
C375        C376   1.428   1_655  A
C376        N377   1.438       .  S
N377        H381   1.045       .  S
N377        H382   1.043       .  S
N380        H383   1.045       .  S
N380        H384   1.046       .  S
